Power grid/case_ACTIVSg2000.m
function mpc = case_ACTIVSg2000
%CASE_ACTIVSG2000  Synthetic Texas 2000-bus power system model.
%
%   This is an entirely synthetic 2000 bus case, geographically situated
%   in the US state of Texas. The case is designed with a 500, 230, 161
%   and 115 kV transmission network to serve a load that roughly mimics
%   the actual population of its geographic footprint. The synthetic
%   transmission system was designed by algorithms described in [1] to be
%   statistically similar to actual transmission system models but without
%   modeling any actual lines.
%
%   When publishing results based on this data, please cite:
%
%   [1] A.B. Birchfield, T. Xu, K.M. Gegner, K.S. Shetye, T.J. Overbye,
%       "Grid Structural Characteristics as Validation Criteria for
%       Synthetic Networks," IEEE Transactions on Power Systems,
%       vol. 32, no. 4, pp. 3258-3265, July 2017.
%       DOI: 10.1109/TPWRS.2016.2616385
%
%   This is a synthetic power system model that does not represent the
%   actual grid. It was developed as part of the US ARPA-E GRID DATA
%   research project and contains no CEII.
%
%   One-line diagrams and other data formats available at:
%       https://electricgrids.engr.tamu.edu
%
%   February 3, 2018

%   Created from ACTIVSg2000.pwb, saved by
%   PowerWorld Simulator, version 20, build date January 28, 2018,
%   then by MATPOWER 6.

%   MATPOWER
%   Copyright (c) 2017-2018 by A.B. Birchfield, T. Xu, K.M. Gegner, K.S. Shetye,
%   and T.J. Overbye
%   Licensed under the Creative Commons Attribution 4.0 International license,
%   http://creativecommons.org/licenses/by/4.0/

%% MATPOWER Case Format : Version 2
mpc.version = '2';

%%-----  Power Flow Data  -----%%
%% system MVA base
mpc.baseMVA = 100;

%% bus data
%	bus_i	type	Pd	Qd	Gs	Bs	area	Vm	Va	baseKV	zone	Vmax	Vmin	lam_P	lam_Q	mu_Vmax	mu_Vmin
mpc.bus = [
	1001	1	20.78	5.89	0	0	1	0.9794356	-22.734844	115	9	1.1	0.9	25.7500	-3.4800	0.0000	0.0000;
	1002	1	15.41	4.37	0	0	1	1.0127364	-18.088545	115	9	1.1	0.9	84.2100	0.4900	0.0000	0.0000;
	1003	1	0	0	0	0	1	1.0092629	-17.086699	115	9	1.1	0.9	-6.7400	0.1400	0.0000	0.0000;
	1004	2	0	0	0	0	1	1.0130707	-18.933999	230	9	1.1	0.9	-7.0800	6.0300	0.0000	0.0000;
	1005	1	0	0	0	0	1	1.0055761	-16.077157	115	9	1.1	0.9	-52.9600	-29.6300	0.0000	0.0000;
	1006	2	0	0	0	0	1	1	-13.905591	13.8	9	1.1	0.9	-50.4400	0.0000	0.0000	0.0000;
	1007	1	7.01	1.99	0	-0.82	1	1.02	-18.467212	115	9	1.1	0.9	73.7600	0.0000	0.0000	0.0000;
	1008	1	0	0	0	0	1	1.0192851	-8.605207	115	9	1.1	0.9	-680.6900	29.8600	0.0000	0.0000;
	1009	2	0	0	0	0	1	1.0092402	-5.309598	13.8	9	1.1	0.9	-680.3200	29.7600	0.0000	0.0000;
	1010	1	0	0	0	-3.07	1	1.02	-16.792355	115	9	1.1	0.9	86.1300	0.0000	0.0000	0.0000;
	1011	2	0	0	0	0	1	1.0202111	-15.009826	22	9	1.1	0.9	86.0200	0.0000	0.0000	0.0000;
	1012	1	2.99	0.85	0	9.5	1	1.0059921	-25.342783	115	9	1.1	0.9	-344.5900	36.1000	0.0000	0.0000;
	1013	1	29.23	8.28	0	0	1	1.0056772	-15.436565	115	9	1.1	0.9	49.3400	-0.9800	0.0000	0.0000;
	1014	1	2.22	0.63	0	0	1	1.0123505	-11.91325	115	9	1.1	0.9	71.8900	-7.3200	0.0000	0.0000;
	1015	1	7.51	2.13	0	0	1	1.0218177	-18.214501	115	9	1.1	0.9	81.0900	-0.1500	0.0000	0.0000;
	1016	1	2.89	0.82	0	30	1	1.0174069	-15.485448	115	9	1.1	0.9	-1.9100	-27.3300	0.0000	0.0000;
	1017	1	18.34	5.2	0	0	1	0.9816734	-21.426222	115	9	1.1	0.9	26.5600	-2.7100	0.0000	0.0000;
	1018	1	0.07	0.02	0	0	1	0.9911469	-20.216148	115	9	1.1	0.9	29.9100	-2.1500	0.0000	0.0000;
	1019	1	61.78	17.5	0	142.98	1	0.9994919	-22.320417	115	9	1.1	0.9	21.2500	-3.6000	0.0000	0.0000;
	1020	1	0	0	0	67.23	1	1.02	-15.230064	115	9	1.1	0.9	-53.9700	0.0000	0.0000	0.0000;
	1021	2	0	0	0	0	1	1	-8.606761	13.8	9	1.1	0.9	-52.3600	0.0000	0.0000	0.0000;
	1022	1	0	0	0	0	1	1.0124231	-16.204693	115	9	1.1	0.9	-6.0700	0.1900	0.0000	0.0000;
	1023	2	0	0	0	0	1	1.01	-7.300393	13.8	9	1.1	0.9	-5.9200	0.0000	0.0000	0.0000;
	1024	1	63.04	17.86	0	0	1	0.9944951	-19.200249	115	9	1.1	0.9	32.4600	-0.9900	0.0000	0.0000;
	1025	1	0	0	0	0	1	1.0162883	-14.170406	115	9	1.1	0.9	-52.2600	-11.8400	0.0000	0.0000;
	1026	2	0	0	0	0	1	1	-4.641462	13.8	9	1.1	0.9	-49.5300	0.0000	0.0000	0.0000;
	1027	1	101.21	28.68	0	75	1	1.0053046	-25.833336	115	9	1.1	0.9	-5.6400	-2.4900	0.0000	0.0000;
	1028	1	10.01	2.84	0	0	1	1.0154159	-17.717136	115	9	1.1	0.9	-4.8900	0.5000	0.0000	0.0000;
	1029	1	83.18	23.57	0	40	1	1.0024174	-24.858888	115	9	1.1	0.9	-0.1500	-0.6100	0.0000	0.0000;
	1030	1	24.63	6.98	0	0	1	1.0122298	-13.41143	115	9	1.1	0.9	99.1600	-10.0500	0.0000	0.0000;
	1031	1	9.25	2.62	0	0	1	1.0121888	-17.672258	115	9	1.1	0.9	61.7400	-0.0300	0.0000	0.0000;
	1032	1	0	0	0	0	1	1.0006583	-12.280471	115	9	1.1	0.9	132.8800	-43.5100	0.0000	0.0000;
	1033	2	0	0	0	50	1	1.0167542	-16.898515	230	9	1.1	0.9	51.5300	-22.1400	0.0000	0.0000;
	1034	1	0	0	0	0	1	1.0045345	-14.320349	115	9	1.1	0.9	-27.5400	-36.4900	0.0000	0.0000;
	1035	2	0	0	0	0	1	1	-11.030416	13.8	9	1.1	0.9	-23.3600	0.0000	0.0000	0.0000;
	1036	1	13.6	3.85	0	0	1	0.9976248	-12.526972	115	9	1.1	0.9	107.4400	-21.8600	0.0000	0.0000;
	1037	1	102.24	28.97	0	0	1	0.9745044	-22.5448	115	9	1.1	0.9	27.0800	-3.0000	0.0000	0.0000;
	1038	1	0	0	0	0	1	1.0165674	-7.646607	115	9	1.1	0.9	110.7900	-14.8600	0.0000	0.0000;
	1039	2	0	0	0	0	1	1	-2.263052	22	9	1.1	0.9	112.0800	0.0000	0.0000	0.0000;
	1040	1	44.36	12.57	0	0	1	0.9940145	-20.480041	115	9	1.1	0.9	29.6800	-1.7100	0.0000	0.0000;
	1041	1	0	0	0	0	1	1.0017746	-15.107504	115	9	1.1	0.9	-1038.7500	23.7600	0.0000	0.0000;
	1042	2	0	0	0	0	1	1.0017746	-15.107504	13.8	9	1.1	0.9	-1038.7500	23.7600	0.0000	0.0000;
	1043	2	0	0	0	0	1	1	-11.864177	13.8	9	1.1	0.9	-1037.8800	0.0000	0.0000	0.0000;
	1044	1	14.68	4.16	0	0	1	1.0067555	-25.963881	115	9	1.1	0.9	-141.5500	-40.2700	0.0000	0.0000;
	1045	1	98.56	27.93	0	0	1	0.9774255	-24.447556	115	9	1.1	0.9	18.0500	-3.5000	0.0000	0.0000;
	1046	1	11.08	3.14	0	12	1	1.0176344	-22.491396	115	9	1.1	0.9	-423.4200	31.5500	0.0000	0.0000;
	1047	1	0	0	0	0	1	1.0052508	-13.35005	115	9	1.1	0.9	47.2400	-1.2800	0.0000	0.0000;
	1048	2	0	0	0	0	1	1.0052508	-13.35005	18	9	1.1	0.9	47.2400	-1.2800	0.0000	0.0000;
	1049	2	0	0	0	0	1	1.0052508	-13.35005	18	9	1.1	0.9	47.2400	-1.2800	0.0000	0.0000;
	1050	2	0	0	0	0	1	1	-8.284789	18	9	1.1	0.9	47.1700	0.0000	0.0000	0.0000;
	1051	2	0	0	0	0	1	1	-6.807389	18	9	1.1	0.9	47.0500	0.0000	0.0000	0.0000;
	1052	2	0	0	0	0	1	1	-9.134369	18	9	1.1	0.9	47.1300	0.0000	0.0000	0.0000;
	1053	2	0	0	0	0	1	1.0174089	-17.33616	230	9	1.1	0.9	46.3800	-0.3200	0.0000	0.0000;
	1054	1	14.99	4.25	0	0	1	1.0036844	-22.292331	115	9	1.1	0.9	-18.5800	0.2400	0.0000	0.0000;
	1055	1	3.98	1.13	0	0	1	1.001405	-18.129563	115	9	1.1	0.9	-8.0700	-0.0300	0.0000	0.0000;
	1056	1	0	0	0	59.97	1	1.02	-21.819612	115	9	1.1	0.9	-20.8400	0.0000	0.0000	0.0000;
	1057	2	0	0	0	0	1	1.02	-21.819612	18	9	1.1	0.9	-20.8400	0.0000	0.0000	0.0000;
	1058	1	13.46	3.81	0	0	1	1.0193738	-11.220883	115	9	1.1	0.9	-585.8000	13.3000	0.0000	0.0000;
	1059	2	0	0	0	0	1	1.0193738	-11.220883	22	9	1.1	0.9	-585.8000	13.3000	0.0000	0.0000;
	1060	2	0	0	0	0	1	1.0193738	-11.220883	22	9	1.1	0.9	-585.8000	13.3000	0.0000	0.0000;
	1061	1	0	0	0	0	1	1.0065566	-17.219364	115	9	1.1	0.9	-60.9200	-23.1300	0.0000	0.0000;
	1062	2	0	0	0	0	1	1.0065566	-17.219364	13.8	9	1.1	0.9	-60.9200	-23.1300	0.0000	0.0000;
	1063	2	0	0	0	0	1	1.0065566	-17.219364	13.8	9	1.1	0.9	-60.9200	-23.1300	0.0000	0.0000;
	1064	1	123.76	35.07	0	0	1	0.9720345	-24.153272	115	9	1.1	0.9	23.2500	-3.5400	0.0000	0.0000;
	1065	1	0	0	0	0	1	1.0042605	-14.932578	115	9	1.1	0.9	-2026.4900	113.3100	0.0000	0.0000;
	1066	2	0	0	0	0	1	1	-7.399054	13.8	9	1.1	0.9	-2023.9500	0.0000	0.0000	0.0000;
	1067	1	101.55	28.77	0	0	1	0.9985952	-15.68248	115	9	1.1	0.9	-45.3700	-60.7700	0.0000	0.0000;
	1068	1	59.4	16.83	0	0	1	0.9868034	-16.436894	115	9	1.1	0.9	37.4700	-15.8100	0.0000	0.0000;
	1069	1	0	0	0	0	1	1.0225598	-8.732588	115	9	1.1	0.9	-619.5200	14.7100	0.0000	0.0000;
	1070	2	0	0	0	0	1	1.04	-4.228777	13.8	9	1.1	0.9	-617.1200	0.0000	0.0000	0.0000;
	1071	1	91.46	25.91	0	0	1	0.9870267	-21.47404	115	9	1.1	0.9	27.6900	-3.3500	0.0000	0.0000;
	1072	2	0	0	0	0	1	1.01	-12.110027	18	9	1.1	0.9	28.0300	0.0000	0.0000	0.0000;
	1073	2	0	0	0	0	1	1.01	-5.681972	18	9	1.1	0.9	28.3400	0.0000	0.0000	0.0000;
	1074	2	0	0	0	0	1	1.01	-7.738009	18	9	1.1	0.9	28.2000	0.0000	0.0000	0.0000;
	1075	2	0	0	0	0	1	1.01	-10.505543	18	9	1.1	0.9	28.1600	0.0000	0.0000	0.0000;
	1076	2	0	0	0	0	1	0.9870267	-21.47404	18	9	1.1	0.9	27.6900	-3.3500	0.0000	0.0000;
	1077	2	0	0	0	0	1	0.9870267	-21.47404	18	9	1.1	0.9	27.6900	-3.3500	0.0000	0.0000;
	1078	2	0	0	0	0	1	1.01	-11.024659	18	9	1.1	0.9	28.1900	0.0000	0.0000	0.0000;
	1079	2	0	0	0	0	1	1.0162141	-38.582859	500	9	1.1	0.9	38.0200	-10.2300	0.0000	0.0000;
	1080	2	0	0	0	0	1	1.01	-10.448676	18	9	1.1	0.9	28.0600	0.0000	0.0000	0.0000;
	1081	2	0	0	0	56.9	1	1.02	-18.691287	230	9	1.1	0.9	46.2600	0.0000	0.0000	0.0000;
	1082	2	0	0	0	0	1	1.0194126	-5.910392	115	9	1.1	0.9	-589.2600	7.3400	0.0000	0.0000;
	1083	1	39.95	11.32	0	26.15	1	1.0188617	-9.886743	115	9	1.1	0.9	102.1700	-13.7100	0.0000	0.0000;
	1084	2	0	0	0	0	1	1.0225199	-16.467206	115	9	1.1	0.9	-42.6500	-7.5000	0.0000	0.0000;
	1085	1	21.3	6.03	0	0	1	1.008987	-15.342869	115	9	1.1	0.9	44.1000	-0.9300	0.0000	0.0000;
	1086	1	39.67	11.24	0	30	1	1.015374	-17.585057	115	9	1.1	0.9	47.0000	-1.1800	0.0000	0.0000;
	1087	1	0.91	0.26	0	8.66	1	1.02	-16.125402	115	9	1.1	0.9	-514.2000	0.0000	0.0000	0.0000;
	1088	2	0	0	0	0	1	1	-11.878466	115	9	1.1	0.9	82.0500	0.0000	0.0000	0.0000;
	1089	1	40.6	11.5	0	0	1	0.9806318	-21.306753	115	9	1.1	0.9	-12.4400	-0.2700	0.0000	0.0000;
	1090	2	0	0	0	0	1	1.02	-16.145053	115	9	1.1	0.9	34.4400	0.0000	0.0000	0.0000;
	1091	1	11.62	3.29	0	0	1	1.0248315	-31.017725	161	9	1.1	0.9	-23.2600	-0.7600	0.0000	0.0000;
	2001	1	48.36	13.7	0	0	2	1.0017518	-59.982147	161	11	1.1	0.9	141.9600	14.2400	0.0000	0.0000;
	2002	1	0	0	0	0	2	1.011061	-61.566631	500	11	1.1	0.9	148.2000	16.9700	0.0000	0.0000;
	2003	1	0	0	0	0	2	1.0093382	-63.828546	161	11	1.1	0.9	155.9200	19.8300	0.0000	0.0000;
	2004	2	0	0	0	0	2	1.011061	-61.566631	13.8	11	1.1	0.9	148.2000	16.9700	0.0000	0.0000;
	2005	2	0	0	0	0	2	1.011061	-61.566631	13.8	11	1.1	0.9	148.2000	16.9700	0.0000	0.0000;
	2006	2	0	0	0	0	2	1.011061	-61.566631	13.8	11	1.1	0.9	148.2000	16.9700	0.0000	0.0000;
	2007	1	9.54	2.7	0	0	2	1.0025088	-59.751902	161	11	1.1	0.9	144.5600	16.5900	0.0000	0.0000;
	2008	1	8.06	2.28	0	0	2	1.0161296	-32.833005	161	10	1.1	0.9	6.8600	-1.0900	0.0000	0.0000;
	2009	1	39.14	11.09	0	113.65	2	1.02	-45.215386	161	11	1.1	0.9	19.7100	0.0000	0.0000	0.0000;
	2010	1	56.81	16.09	0	22.39	2	1.02	-36.405086	161	10	1.1	0.9	-47.2000	0.0000	0.0000	0.0000;
	2011	1	0	0	0	0	2	1.0388703	-32.100979	500	10	1.1	0.9	24.3600	-0.3500	0.0000	0.0000;
	2012	1	0	0	0	0	2	1.0270973	-29.869241	161	10	1.1	0.9	21.8000	-0.7200	0.0000	0.0000;
	2013	2	0	0	0	0	2	1.0305102	-29.76103	18	10	1.1	0.9	24.3700	-0.3600	0.0000	0.0000;
	2014	1	25.43	7.2	0	0	2	1.014488	-33.408935	161	10	1.1	0.9	-1.8700	-0.8300	0.0000	0.0000;
	2015	1	4.69	1.33	0	0	2	1.0060782	-63.292789	161	11	1.1	0.9	247.0500	17.4400	0.0000	0.0000;
	2016	1	69.27	19.63	0	0	2	1.0060187	-69.954795	161	11	1.1	0.9	2322.9100	545.8200	0.0000	0.0000;
	2017	1	0	0	0	-200	2	1.0283919	-32.24683	500	10	1.1	0.9	21.4800	0.1900	0.0000	0.0000;
	2018	1	0	0	0	0	2	1.0264922	-31.456709	161	10	1.1	0.9	21.6700	-0.1000	0.0000	0.0000;
	2019	2	0	0	0	0	2	1.0283919	-32.24683	20	10	1.1	0.9	21.4800	0.1900	0.0000	0.0000;
	2020	1	47.97	13.59	0	0	2	0.9951749	-44.885383	161	11	1.1	0.9	25.6900	4.2600	0.0000	0.0000;
	2021	1	0	0	0	0	2	1.0138733	-56.702369	500	11	1.1	0.9	135.3500	9.9500	0.0000	0.0000;
	2022	1	11.56	3.28	0	0	2	1.0100102	-58.637546	161	11	1.1	0.9	138.8400	13.0800	0.0000	0.0000;
	2023	2	0	0	0	0	2	1.02	-55.13952	13.8	11	1.1	0.9	134.8100	0.0000	0.0000	0.0000;
	2024	2	0	0	0	0	2	1.02	-54.474073	13.8	11	1.1	0.9	134.6600	0.0000	0.0000	0.0000;
	2025	1	39.62	11.23	0	0	2	0.994074	-44.124136	161	11	1.1	0.9	17.8400	1.5300	0.0000	0.0000;
	2026	1	18.57	5.26	0	0	2	1.0264805	-31.081493	161	10	1.1	0.9	23.8600	-0.4700	0.0000	0.0000;
	2027	1	3.55	1.01	0	0	2	1.0021966	-60.413018	161	11	1.1	0.9	143.7200	14.9800	0.0000	0.0000;
	2028	1	14.24	4.03	0	0	2	0.9945927	-47.249778	161	11	1.1	0.9	44.1300	10.6900	0.0000	0.0000;
	2029	1	3.2	0.91	0	0	2	1.0200518	-32.781385	161	10	1.1	0.9	-8.6900	-0.5600	0.0000	0.0000;
	2030	1	47.15	13.36	0	0	2	0.9883653	-64.039783	161	11	1.1	0.9	163.8000	24.6200	0.0000	0.0000;
	2031	1	5.77	1.63	0	0	2	1.0204588	-29.638731	161	10	1.1	0.9	-81.8900	7.2400	0.0000	0.0000;
	2032	1	3.35	0.95	0	0	2	1.004536	-59.146912	161	11	1.1	0.9	142.6200	15.3300	0.0000	0.0000;
	2033	1	13.57	3.85	0	0	2	0.9908717	-65.552183	161	11	1.1	0.9	172.6100	26.2800	0.0000	0.0000;
	2034	1	5.34	1.51	0	0	2	1.0046209	-69.283118	161	11	1.1	0.9	2456.8200	590.2500	0.0000	0.0000;
	2035	1	4.68	1.33	0	0	2	1.0152073	-30.560737	161	10	1.1	0.9	-98.5100	10.2600	0.0000	0.0000;
	2036	1	41.59	11.78	0	0	2	0.998941	-44.48325	161	11	1.1	0.9	20.6100	1.7700	0.0000	0.0000;
	2037	1	3.5	0.99	0	0	2	1.0166773	-63.62606	161	11	1.1	0.9	275.4100	12.4300	0.0000	0.0000;
	2038	1	2.6	0.74	0	0	2	1.0063308	-64.301324	161	11	1.1	0.9	159.8400	21.4800	0.0000	0.0000;
	2039	1	5.56	1.58	0	0	2	0.9912537	-60.671164	161	11	1.1	0.9	168.9500	23.3000	0.0000	0.0000;
	2040	1	15.9	4.51	0	0	2	1.0074385	-59.308023	161	11	1.1	0.9	140.7400	13.7500	0.0000	0.0000;
	2041	1	0	0	0	0	2	1.0280219	-27.686092	161	10	1.1	0.9	21.8900	-0.5400	0.0000	0.0000;
	2042	2	0	0	0	0	2	1.0194284	-25.11083	18	10	1.1	0.9	21.9000	-2.8900	0.0000	0.0000;
	2043	1	4.24	1.2	0	0	2	1.0050458	-69.589647	161	11	1.1	0.9	2400.3300	573.9300	0.0000	0.0000;
	2044	1	27.4	7.76	0	0	2	1.0130566	-65.383329	161	11	1.1	0.9	261.0300	18.8300	0.0000	0.0000;
	2045	1	22.61	6.4	0	0	2	0.9944497	-45.423966	161	11	1.1	0.9	29.4400	5.7000	0.0000	0.0000;
	2046	1	22.13	6.27	0	0	2	1.0045595	-68.896782	161	11	1.1	0.9	2515.8800	603.8800	0.0000	0.0000;
	2047	1	14.96	4.24	0	0	2	1.0079022	-64.729913	161	11	1.1	0.9	1395.5700	363.4200	0.0000	0.0000;
	2048	1	6.42	1.82	0	0	2	1.0237031	-31.710962	161	10	1.1	0.9	-50.4400	2.9400	0.0000	0.0000;
	2049	1	11.57	3.28	0	0	2	1.0177581	-40.946465	161	10	1.1	0.9	-0.7900	2.0600	0.0000	0.0000;
	2050	1	3.66	1.04	0	0	2	0.9941919	-63.23541	161	11	1.1	0.9	156.1600	20.5300	0.0000	0.0000;
	2051	1	17.85	5.06	0	0	2	0.989552	-54.140347	161	11	1.1	0.9	119.2700	25.2600	0.0000	0.0000;
	2052	1	24.84	7.04	0	0	2	1.0174448	-31.96347	161	10	1.1	0.9	14.1300	-1.1100	0.0000	0.0000;
	2053	1	29.13	8.25	0	0	2	0.9910634	-59.360379	161	11	1.1	0.9	109.2800	18.7400	0.0000	0.0000;
	2054	1	0	0	0	0	2	0.9977811	-43.13131	500	11	1.1	0.9	19.4700	0.9900	0.0000	0.0000;
	2055	1	49.62	14.06	0	0	2	0.9973321	-43.960678	161	11	1.1	0.9	20.7500	1.9800	0.0000	0.0000;
	2056	2	0	0	0	0	2	0.9977811	-43.13131	18	11	1.1	0.9	19.4700	0.9900	0.0000	0.0000;
	2057	2	0	0	0	0	2	0.99	-38.725286	18	11	1.1	0.9	19.3300	0.0000	0.0000	0.0000;
	2058	1	0	0	0	0	2	1.0283596	-27.258033	161	10	1.1	0.9	22.1100	-0.5300	0.0000	0.0000;
	2059	2	0	0	0	0	2	1.0183617	-23.911715	13.8	10	1.1	0.9	22.0900	-0.5300	0.0000	0.0000;
	2060	1	3.8	1.08	0	0	2	0.9974049	-61.950951	161	11	1.1	0.9	151.9700	19.2900	0.0000	0.0000;
	2061	1	0	0	0	0	2	1.0211752	-37.427819	161	10	1.1	0.9	-16.0700	0.8800	0.0000	0.0000;
	2062	2	0	0	0	0	2	1.02	-35.131	18	10	1.1	0.9	-16.0600	0.0000	0.0000	0.0000;
	2063	1	65.62	18.59	0	40	2	1.0060645	-68.258359	161	11	1.1	0.9	2558.9800	612.1200	0.0000	0.0000;
	2064	1	10.05	2.85	0	0	2	1.0031055	-60.277381	161	11	1.1	0.9	145.0500	16.1800	0.0000	0.0000;
	2065	1	78.36	22.2	0	94.98	2	1.02	-65.600732	161	11	1.1	0.9	317.7700	0.0000	0.0000	0.0000;
	2066	1	7.11	2.02	0	0	2	1.014436	-27.628767	161	10	1.1	0.9	-119.1700	10.1000	0.0000	0.0000;
	2067	1	53.97	15.29	0	0	2	0.9923568	-44.047987	161	11	1.1	0.9	13.7100	1.0900	0.0000	0.0000;
	2068	1	5.76	1.63	0	0	2	0.9989951	-42.016304	161	11	1.1	0.9	-3.0800	-0.2200	0.0000	0.0000;
	2069	1	21.92	6.21	0	110.69	2	1.02	-69.116814	161	11	1.1	0.9	211.3000	0.0000	0.0000	0.0000;
	2070	1	0	0	0	0	2	1.0010765	-41.598099	161	11	1.1	0.9	-9.2800	-0.1900	0.0000	0.0000;
	2071	2	0	0	0	0	2	1	-37.919678	18	11	1.1	0.9	-9.2200	0.0000	0.0000	0.0000;
	2072	1	9.71	2.75	0	0	2	1.0148759	-67.240635	161	11	1.1	0.9	196.2700	48.1600	0.0000	0.0000;
	2073	1	0	0	0	0	2	1.0155141	-25.108834	161	10	1.1	0.9	-134.8900	8.3800	0.0000	0.0000;
	2074	1	0	0	0	0	2	1.0058489	-23.236834	115	10	1.1	0.9	-187.9600	4.7300	0.0000	0.0000;
	2075	1	0	0	0	0	2	1.0058489	-23.236834	115	10	1.1	0.9	-187.9600	4.7300	0.0000	0.0000;
	2076	2	0	0	0	0	2	1.0207772	-24.20214	24	10	1.1	0.9	-134.9500	8.3600	0.0000	0.0000;
	2077	1	0	0	0	0	2	1.0178964	-61.197723	161	11	1.1	0.9	244.4700	11.6100	0.0000	0.0000;
	2078	2	0	0	0	0	2	1.02	-57.875001	13.8	11	1.1	0.9	242.7000	0.0000	0.0000	0.0000;
	2079	1	4.48	1.27	0	0	2	1.0222991	-34.626738	161	10	1.1	0.9	-48.5300	1.3600	0.0000	0.0000;
	2080	1	16.93	4.8	0	0	2	0.9946218	-57.499175	161	11	1.1	0.9	160.8500	24.6900	0.0000	0.0000;
	2081	1	4.46	1.26	0	0	2	1.0009362	-65.107672	161	11	1.1	0.9	166.9900	24.3400	0.0000	0.0000;
	2082	1	59.03	16.73	0	0	2	1.002871	-44.826631	161	11	1.1	0.9	20.4200	1.5300	0.0000	0.0000;
	2083	2	0	0	0	0	2	1.0175906	-43.247104	20	11	1.1	0.9	20.3100	1.4800	0.0000	0.0000;
	2084	2	0	0	0	0	2	1.002871	-44.826631	20	11	1.1	0.9	20.4200	1.5300	0.0000	0.0000;
	2085	2	0	0	0	0	2	1.002871	-44.826631	20	11	1.1	0.9	20.4200	1.5300	0.0000	0.0000;
	2086	1	2.19	0.62	0	0	2	0.9924453	-59.474499	161	11	1.1	0.9	165.9200	23.9800	0.0000	0.0000;
	2087	1	7.9	2.24	0	0	2	1.017379	-27.472635	161	10	1.1	0.9	-109.6900	9.0500	0.0000	0.0000;
	2088	1	0	0	0	0	2	1.0000706	-41.716402	161	11	1.1	0.9	-5.3400	-0.2400	0.0000	0.0000;
	2089	2	0	0	0	0	2	1	-38.113501	24	11	1.1	0.9	-5.2800	0.0000	0.0000	0.0000;
	2090	1	2.42	0.69	0	0	2	1.0025227	-61.033299	161	11	1.1	0.9	146.6600	16.3500	0.0000	0.0000;
	2091	1	17.05	4.83	0	0	2	1.0162815	-33.97855	161	10	1.1	0.9	-72.4200	7.2000	0.0000	0.0000;
	2092	1	24.11	6.83	0	0	2	1.0054244	-66.568503	161	11	1.1	0.9	2569.9700	618.2600	0.0000	0.0000;
	2093	1	0	0	0	0	2	1.0272713	-30.621379	161	10	1.1	0.9	21.7400	-0.4300	0.0000	0.0000;
	2094	2	0	0	0	0	2	1.0272713	-30.621379	13.8	10	1.1	0.9	21.7400	-0.4300	0.0000	0.0000;
	2095	2	0	0	0	0	2	1.0272713	-30.621379	13.8	10	1.1	0.9	21.7400	-0.4300	0.0000	0.0000;
	2096	1	0	0	0	-122.33	2	1.0199998	-27.84317	500	10	1.1	0.9	9.9700	0.6400	0.0000	0.0000;
	2097	1	0	0	0	0	2	1.0192658	-27.282308	230	10	1.1	0.9	7.2600	0.5800	0.0000	0.0000;
	2098	1	0	0	0	0	2	1.0256479	-30.426538	161	10	1.1	0.9	-18.4100	-1.6600	0.0000	0.0000;
	2099	2	0	0	0	0	2	1.02	-27.699549	18	10	1.1	0.9	9.9600	0.0000	0.0000	0.0000;
	2100	2	0	0	0	0	2	1.02	-25.218709	18	10	1.1	0.9	9.9300	0.0000	0.0000	0.0000;
	2101	1	0	0	0	0	2	1.010539	-62.673279	500	11	1.1	0.9	150.8700	18.3100	0.0000	0.0000;
	2102	1	0	0	0	0	2	1.0105919	-64.120882	161	11	1.1	0.9	176.2200	27.2000	0.0000	0.0000;
	2103	2	0	0	0	0	2	1.010539	-62.673279	20	11	1.1	0.9	150.8700	18.3100	0.0000	0.0000;
	2104	2	0	0	0	0	2	1.010539	-62.673279	20	11	1.1	0.9	150.8700	18.3100	0.0000	0.0000;
	2105	2	0	0	0	0	2	1.010539	-62.673279	20	11	1.1	0.9	150.8700	18.3100	0.0000	0.0000;
	2106	1	14.4	4.08	0	0	2	0.9891329	-66.198009	161	11	1.1	0.9	178.0800	28.5300	0.0000	0.0000;
	2107	1	74.15	21.01	0	0	2	1.0051501	-64.992908	161	11	1.1	0.9	192.4900	27.8800	0.0000	0.0000;
	2108	1	2.14	0.61	0	0	2	0.9991016	-43.691094	161	10	1.1	0.9	-182.5800	88.3600	0.0000	0.0000;
	2109	1	33.81	9.58	0	0	2	1.0066134	-46.357265	161	11	1.1	0.9	29.5300	4.9400	0.0000	0.0000;
...
];

%% generator data
%	bus	Pg	Qg	Qmax	Qmin	Vg	mBase	status	Pmax	Pmin	Pc1	Pc2	Qc1min	Qc1max	Qc2min	Qc2max	ramp_agc	ramp_10	ramp_30	ramp_q	apf	mu_Pmax	mu_Pmin	mu_Qmax	mu_Qmin
mpc.gen = [
	1004	158.25	-30.38	44.94	-30.38	1.01	253.2	1	158.25	158.25	0	0	0	0	0	0	0	0	0	0	211	0.0000	0.0000	0.0000	0.0000;
	1006	25.73	-4.35	7.31	-4.94	1	41.16	1	25.73	25.73	0	0	0	0	0	0	0	0	0	0	34.3	0.0000	0.0000	0.0000	0.0000;
	1009	61.87	-11.88	17.57	-11.88	1	99	1	61.87	61.87	0	0	0	0	0	0	0	0	0	0	82.5	0.0000	0.0000	0.0000	0.0000;
	1011	9.97	0	0	0	1	12	1	10	3	0	0	0	0	0	0	0	0	0	0	10	0.0000	0.0000	0.0000	0.0000;
	1021	149.63	-23.15	42.49	-28.73	1	239.4	1	149.63	149.63	0	0	0	0	0	0	0	0	0	0	199.5	0.0000	0.0000	0.0000	0.0000;
	1023	135	2.26	38.34	-25.92	1.01	216	1	135	135	0	0	0	0	0	0	0	0	0	0	180	0.0000	0.0000	0.0000	0.0000;
	1026	93.15	-3.42	26.45	-17.88	1	149.04	1	93.15	93.15	0	0	0	0	0	0	0	0	0	0	124.2	0.0000	0.0000	0.0000	0.0000;
	1033	208.5	-40.03	59.21	-40.03	1	333.6	1	208.5	208.5	0	0	0	0	0	0	0	0	0	0	278	0.0000	0.0000	0.0000	0.0000;
	1035	67.5	-6.87	19.17	-12.96	1	108	1	67.5	67.5	0	0	0	0	0	0	0	0	0	0	90	0.0000	0.0000	0.0000	0.0000;
	1039	110.63	-16.65	31.42	-21.24	1	177	1	110.63	110.63	0	0	0	0	0	0	0	0	0	0	147.5	0.0000	0.0000	0.0000	0.0000;
	1042	0	0	25.96	-17.55	1	146.28	0	121.9	36.57	0	0	0	0	0	0	0	0	0	0	121.9	0.0000	0.0000	0.0000	0.0000;
	1043	44.1	-1.16	12.52	-8.47	1	70.56	1	44.1	44.1	0	0	0	0	0	0	0	0	0	0	58.8	0.0000	0.0000	0.0000	0.0000;
	1048	0	0	165.53	-36.1	1	390.24	0	325.2	97.56	0	0	0	0	0	0	0	0	0	0	325.2	0.0000	0.0000	0.0000	0.0000;
	1049	0	0	165.53	-36.1	1	390.24	0	325.2	97.56	0	0	0	0	0	0	0	0	0	0	325.2	0.0000	0.0000	0.0000	0.0000;
	1050	89.15	-4.14	45.5	-9.92	1	107.28	1	89.4	26.82	0	0	0	0	0	0	0	0	0	0	89.4	0.0000	0.0000	0.0000	0.0000;
	1051	89.15	-2.88	45.5	-9.92	1	107.28	1	89.4	26.82	0	0	0	0	0	0	0	0	0	0	89.4	0.0000	0.0000	0.0000	0.0000;
	1052	89.15	-7.04	45.5	-9.92	1	107.28	1	89.4	26.82	0	0	0	0	0	0	0	0	0	0	89.4	0.0000	0.0000	0.0000	0.0000;
	1053	0	0	91.01	-19.85	1	214.56	0	178.8	53.64	0	0	0	0	0	0	0	0	0	0	178.8	0.0000	0.0000	0.0000	0.0000;
	1057	0	0	25.56	-17.28	1	144	0	120	36	0	0	0	0	0	0	0	0	0	0	120	0.0000	0.0000	0.0000	0.0000;
	1059	0	0	2.85	-0.62	1.04	6.72	0	5.6	1.68	0	0	0	0	0	0	0	0	0	0	5.6	0.0000	0.0000	0.0000	0.0000;
	1060	0	0	1.02	-0.22	1.04	2.4	0	2	0.6	0	0	0	0	0	0	0	0	0	0	2	0.0000	0.0000	0.0000	0.0000;
	1062	0	0	0	0	1.01	1.8	0	1.5	0.45	0	0	0	0	0	0	0	0	0	0	1.5	0.0000	0.0000	0.0000	0.0000;
	1063	0	0	0	0	1.01	276	0	230	69	0	0	0	0	0	0	0	0	0	0	230	0.0000	0.0000	0.0000	0.0000;
	1066	106.88	-0.83	30.35	-20.52	1	171	1	106.88	106.88	0	0	0	0	0	0	0	0	0	0	142.5	0.0000	0.0000	0.0000	0.0000;
	1070	120.38	25.49	34.19	-23.11	1.04	192.6	1	120.38	120.38	0	0	0	0	0	0	0	0	0	0	160.5	0.0000	0.0000	0.0000	0.0000;
	1072	191.59	30.82	97.8	-21.33	1.01	230.56	1	192.13	57.64	0	0	0	0	0	0	0	0	0	0	192.13	0.0000	0.0000	0.0000	0.0000;
	1073	191.59	35.97	97.8	-21.33	1.01	230.56	1	192.13	57.64	0	0	0	0	0	0	0	0	0	0	192.13	0.0000	0.0000	0.0000	0.0000;
	1074	191.59	32.68	97.8	-21.33	1.01	230.56	1	192.13	57.64	0	0	0	0	0	0	0	0	0	0	192.13	0.0000	0.0000	0.0000	0.0000;
	1075	191.59	34.38	97.8	-21.33	1.01	230.56	1	192.13	57.64	0	0	0	0	0	0	0	0	0	0	192.13	0.0000	0.0000	0.0000	0.0000;
	1076	0	0	97.8	-21.33	1.01	230.56	0	192.13	57.64	0	0	0	0	0	0	0	0	0	0	192.13	0.0000	0.0000	0.0000	0.0000;
	1077	0	0	97.8	-21.33	1.01	230.56	0	192.13	57.64	0	0	0	0	0	0	0	0	0	0	192.13	0.0000	0.0000	0.0000	0.0000;
	1078	95.23	18.16	48.61	-10.6	1.01	114.6	1	95.5	28.65	0	0	0	0	0	0	0	0	0	0	95.5	0.0000	0.0000	0.0000	0.0000;
	1079	95.23	-10.6	48.61	-10.6	1.01	114.6	1	95.5	28.65	0	0	0	0	0	0	0	0	0	0	95.5	0.0000	0.0000	0.0000	0.0000;
	1080	95.23	14.9	48.61	-10.6	1.01	114.6	1	95.5	28.65	0	0	0	0	0	0	0	0	0	0	95.5	0.0000	0.0000	0.0000	0.0000;
	1081	0	0	145.83	-31.8	1.01	343.8	0	286.5	85.95	0	0	0	0	0	0	0	0	0	0	286.5	0.0000	0.0000	0.0000	0.0000;
	1082	112.5	-21.6	31.95	-21.6	1	180	1	112.5	112.5	0	0	0	0	0	0	0	0	0	0	150	0.0000	0.0000	0.0000	0.0000;
	1084	86.62	24.6	24.6	-16.63	1.04	138.6	1	86.62	86.62	0	0	0	0	0	0	0	0	0	0	115.5	0.0000	0.0000	0.0000	0.0000;
	1088	56.25	-0.29	15.97	-10.8	1	90	1	56.25	56.25	0	0	0	0	0	0	0	0	0	0	75	0.0000	0.0000	0.0000	0.0000;
	1090	114.37	31.03	32.48	-21.96	1.02	183	1	114.37	114.37	0	0	0	0	0	0	0	0	0	0	152.5	0.0000	0.0000	0.0000	0.0000;
	1090	27	7.67	7.67	-5.18	1.02	43.2	1	27	27	0	0	0	0	0	0	0	0	0	0	36	0.0000	0.0000	0.0000	0.0000;
	2004	0	0	199.43	-43.49	1.02	470.16	0	391.8	117.54	0	0	0	0	0	0	0	0	0	0	391.8	0.0000	0.0000	0.0000	0.0000;
	2005	0	0	199.43	-43.49	1.02	470.16	0	391.8	117.54	0	0	0	0	0	0	0	0	0	0	391.8	0.0000	0.0000	0.0000	0.0000;
	2006	0	0	199.43	-43.49	1.02	470.16	0	391.8	117.54	0	0	0	0	0	0	0	0	0	0	391.8	0.0000	0.0000	0.0000	0.0000;
	2013	150.45	-28.89	42.73	-28.89	1	240.72	1	150.45	150.45	0	0	0	0	0	0	0	0	0	0	200.6	0.0000	0.0000	0.0000	0.0000;
	2019	0	0	46.43	-31.39	1.04	261.6	0	218	65.4	0	0	0	0	0	0	0	0	0	0	218	0.0000	0.0000	0.0000	0.0000;
	2023	83.1	18.16	42.42	-9.25	1.02	100	1	83.33	25	0	0	0	0	0	0	0	0	0	0	83.33	0.0000	0.0000	0.0000	0.0000;
	2024	166.2	26.53	84.83	-18.5	1.02	200	1	166.67	50	0	0	0	0	0	0	0	0	0	0	166.67	0.0000	0.0000	0.0000	0.0000;
	2042	59.7	-11.46	16.95	-11.46	1.01	95.52	1	59.7	59.7	0	0	0	0	0	0	0	0	0	0	79.6	0.0000	0.0000	0.0000	0.0000;
	2056	0	0	2.8	-0.73	0.99	7.2	0	6	1.8	0	0	0	0	0	0	0	0	0	0	6	0.0000	0.0000	0.0000	0.0000;
	2057	573.57	-47.07	335.52	-87.84	0.99	864	1	720	216	0	0	0	0	0	0	0	0	0	0	720	0.0000	0.0000	0.0000	0.0000;
	2059	60	-11.52	17.04	-11.52	1	96	1	60	60	0	0	0	0	0	0	0	0	0	0	80	0.0000	0.0000	0.0000	0.0000;
	2062	101.55	-4.84	28.84	-19.5	1.02	162.48	1	101.55	101.55	0	0	0	0	0	0	0	0	0	0	135.4	0.0000	0.0000	0.0000	0.0000;
	2071	112.5	-0.82	31.95	-21.6	1	180	1	112.5	112.5	0	0	0	0	0	0	0	0	0	0	150	0.0000	0.0000	0.0000	0.0000;
	2076	22.5	6.39	6.39	-4.32	1.04	36	1	22.5	22.5	0	0	0	0	0	0	0	0	0	0	30	0.0000	0.0000	0.0000	0.0000;
	2078	84.38	3.09	23.96	-16.2	1.02	135	1	84.38	84.38	0	0	0	0	0	0	0	0	0	0	112.5	0.0000	0.0000	0.0000	0.0000;
	2083	19.94	10.18	10.18	-2.22	1.02	24	1	20	6	0	0	0	0	0	0	0	0	0	0	20	0.0000	0.0000	0.0000	0.0000;
	2084	0	0	10.18	-2.22	1.02	24	0	20	6	0	0	0	0	0	0	0	0	0	0	20	0.0000	0.0000	0.0000	0.0000;
	2085	0	0	20.36	-4.44	1.02	48	0	40	12	0	0	0	0	0	0	0	0	0	0	40	0.0000	0.0000	0.0000	0.0000;
	2089	50.7	0.48	14.4	-9.73	1	81.12	1	50.7	50.7	0	0	0	0	0	0	0	0	0	0	67.6	0.0000	0.0000	0.0000	0.0000;
	2094	0	0	2.13	-1.44	1	12	0	10	3	0	0	0	0	0	0	0	0	0	0	10	0.0000	0.0000	0.0000	0.0000;
	2095	0	0	16.93	-11.45	1	95.4	0	79.5	23.85	0	0	0	0	0	0	0	0	0	0	79.5	0.0000	0.0000	0.0000	0.0000;
	2099	7.5	-0.05	2.13	-1.44	1.02	12	1	7.5	7.5	0	0	0	0	0	0	0	0	0	0	10	0.0000	0.0000	0.0000	0.0000;
	2100	112.5	0.58	31.95	-21.6	1.02	180	1	112.5	112.5	0	0	0	0	0	0	0	0	0	0	150	0.0000	0.0000	0.0000	0.0000;
	2103	0	0	136.28	-29.72	1	321.28	0	267.73	80.32	0	0	0	0	0	0	0	0	0	0	267.73	0.0000	0.0000	0.0000	0.0000;
	2104	0	0	136.28	-29.72	1	321.28	0	267.73	80.32	0	0	0	0	0	0	0	0	0	0	267.73	0.0000	0.0000	0.0000	0.0000;
	2105	0	0	136.28	-29.72	1	321.28	0	267.73	80.32	0	0	0	0	0	0	0	0	0	0	267.73	0.0000	0.0000	0.0000	0.0000;
	2115	184.2	-20.5	94.02	-20.5	1	221.66	1	184.72	55.41	0	0	0	0	0	0	0	0	0	0	184.72	0.0000	0.0000	0.0000	0.0000;
	2116	184.2	-20.5	94.02	-20.5	1	221.66	1	184.72	55.41	0	0	0	0	0	0	0	0	0	0	184.72	0.0000	0.0000	0.0000	0.0000;
	2117	184.2	-20.5	94.02	-20.5	1	221.66	1	184.72	55.41	0	0	0	0	0	0	0	0	0	0	184.72	0.0000	0.0000	0.0000	0.0000;
	2118	184.2	-20.5	94.02	-20.5	1	221.66	1	184.72	55.41	0	0	0	0	0	0	0	0	0	0	184.72	0.0000	0.0000	0.0000	0.0000;
	2119	184.2	-20.5	94.02	-20.5	1	221.66	1	184.72	55.41	0	0	0	0	0	0	0	0	0	0	184.72	0.0000	0.0000	0.0000	0.0000;
	2120	184.2	-2.92	94.02	-20.5	1.01	221.66	1	184.72	55.41	0	0	0	0	0	0	0	0	0	0	184.72	0.0000	0.0000	0.0000	0.0000;
	2123	136.28	-26.16	38.7	-26.16	1	218.04	1	136.28	136.28	0	0	0	0	0	0	0	0	0	0	181.7	0.0000	0.0000	0.0000	0.0000;
	2127	216.45	-0.02	61.47	-41.56	1.04	346.32	1	216.45	216.45	0	0	0	0	0	0	0	0	0	0	288.6	0.0000	0.0000	0.0000	0.0000;
	3004	28.13	-5.4	7.99	-5.4	1	45	1	28.13	28.13	0	0	0	0	0	0	0	0	0	0	37.5	0.0000	0.0000	0.0000	0.0000;
	3017	127.13	3.68	36.1	-24.41	1.01	203.4	1	127.13	127.13	0	0	0	0	0	0	0	0	0	0	169.5	0.0000	0.0000	0.0000	0.0000;
	3020	112.5	12.59	31.95	-21.6	1.03	180	1	112.5	112.5	0	0	0	0	0	0	0	0	0	0	150	0.0000	0.0000	0.0000	0.0000;
	3028	150	42.6	42.6	-28.8	1.04	240	1	150	150	0	0	0	0	0	0	0	0	0	0	200	0.0000	0.0000	0.0000	0.0000;
	3034	97.87	18.15	27.8	-18.79	1.03	156.6	1	97.87	97.87	0	0	0	0	0	0	0	0	0	0	130.5	0.0000	0.0000	0.0000	0.0000;
	3039	156.75	44.52	44.52	-30.1	1.04	250.8	1	156.75	156.75	0	0	0	0	0	0	0	0	0	0	209	0.0000	0.0000	0.0000	0.0000;
	3043	0	0	0.66	-0.14	1.04	1.56	0	1.3	0.39	0	0	0	0	0	0	0	0	0	0	1.3	0.0000	0.0000	0.0000	0.0000;
	3044	0	0	45.5	-9.92	1.04	107.28	0	89.4	26.82	0	0	0	0	0	0	0	0	0	0	89.4	0.0000	0.0000	0.0000	0.0000;
	3045	0	0	227.52	-49.62	1.04	536.4	0	447	134.1	0	0	0	0	0	0	0	0	0	0	447	0.0000	0.0000	0.0000	0.0000;
	3048	180.75	51.33	51.33	-34.7	1.04	289.2	1	180.75	180.75	0	0	0	0	0	0	0	0	0	0	241	0.0000	0.0000	0.0000	0.0000;
	3055	183.88	50.05	52.22	-35.3	1.04	294.2	1	183.88	183.88	0	0	0	0	0	0	0	0	0	0	245.17	0.0000	0.0000	0.0000	0.0000;
	3056	183.88	31.71	52.22	-35.3	1.04	294.2	1	183.88	183.88	0	0	0	0	0	0	0	0	0	0	245.17	0.0000	0.0000	0.0000	0.0000;
	3057	183.88	30.31	52.22	-35.3	1.04	294.2	1	183.88	183.88	0	0	0	0	0	0	0	0	0	0	245.17	0.0000	0.0000	0.0000	0.0000;
	3060	124.22	16.04	35.28	-23.85	1.04	198.75	1	124.22	124.22	0	0	0	0	0	0	0	0	0	0	165.63	0.0000	0.0000	0.0000	0.0000;
	3061	124.22	17.93	35.28	-23.85	1.04	198.75	1	124.22	124.22	0	0	0	0	0	0	0	0	0	0	165.63	0.0000	0.0000	0.0000	0.0000;
	3062	124.22	27.34	35.28	-23.85	1.04	198.75	1	124.22	124.22	0	0	0	0	0	0	0	0	0	0	165.63	0.0000	0.0000	0.0000	0.0000;
	3063	124.22	20.41	35.28	-23.85	1.04	198.75	1	124.22	124.22	0	0	0	0	0	0	0	0	0	0	165.63	0.0000	0.0000	0.0000	0.0000;
	3065	60.37	-8.38	17.15	-11.59	1	96.6	1	60.37	60.37	0	0	0	0	0	0	0	0	0	0	80.5	0.0000	0.0000	0.0000	0.0000;
	3068	112.5	30.84	31.95	-21.6	1.04	180	1	112.5	112.5	0	0	0	0	0	0	0	0	0	0	150	0.0000	0.0000	0.0000	0.0000;
	3071	127.65	-24.51	36.25	-24.51	1	204.24	1	127.65	127.65	0	0	0	0	0	0	0	0	0	0	170.2	0.0000	0.0000	0.0000	0.0000;
	3074	74.85	-1.88	21.26	-14.37	1	119.76	1	74.85	74.85	0	0	0	0	0	0	0	0	0	0	99.8	0.0000	0.0000	0.0000	0.0000;
	3081	186.75	40.91	53.04	-35.86	1.04	298.8	1	186.75	186.75	0	0	0	0	0	0	0	0	0	0	249	0.0000	0.0000	0.0000	0.0000;
	3084	174.37	-5.29	49.52	-33.48	1	279	1	174.37	174.37	0	0	0	0	0	0	0	0	0	0	232.5	0.0000	0.0000	0.0000	0.0000;
	3086	56.25	-0.11	15.97	-10.8	1	90	1	56.25	56.25	0	0	0	0	0	0	0	0	0	0	75	0.0000	0.0000	0.0000	0.0000;
	3087	0	0	15.97	-10.8	1	90	0	75	22.5	0	0	0	0	0	0	0	0	0	0	75	0.0000	0.0000	0.0000	0.0000;
	3092	150	30.83	42.6	-28.8	1.04	240	1	150	150	0	0	0	0	0	0	0	0	0	0	200	0.0000	0.0000	0.0000	0.0000;
	3095	90.45	21.16	25.69	-17.37	1.04	144.72	1	90.45	90.45	0	0	0	0	0	0	0	0	0	0	120.6	0.0000	0.0000	0.0000	0.0000;
	3098	120	21.82	34.08	-23.04	1.04	192	1	120	120	0	0	0	0	0	0	0	0	0	0	160	0.0000	0.0000	0.0000	0.0000;
	3105	44.5	-0.74	17.07	-0.74	1	18	1	44.5	44.5	0	0	0	0	0	0	0	0	0	0	15	0.0000	0.0000	0.0000	0.0000;
	3106	53.02	-2.57	62.48	-2.69	1	65.88	1	53.02	53.02	0	0	0	0	0	0	0	0	0	0	54.9	0.0000	0.0000	0.0000	0.0000;
	3110	63	13.69	17.89	-12.1	1.04	100.8	1	63	63	0	0	0	0	0	0	0	0	0	0	84	0.0000	0.0000	0.0000	0.0000;
	3112	56.1	-1.51	15.93	-10.77	1	89.76	1	56.1	56.1	0	0	0	0	0	0	0	0	0	0	74.8	0.0000	0.0000	0.0000	0.0000;
	3113	56.1	-0.82	15.93	-10.77	1	89.76	1	56.1	56.1	0	0	0	0	0	0	0	0	0	0	74.8	0.0000	0.0000	0.0000	0.0000;
	3117	47.25	-3.77	13.42	-9.07	1	75.6	1	47.25	47.25	0	0	0	0	0	0	0	0	0	0	63	0.0000	0.0000	0.0000	0.0000;
	3118	90	-6.63	25.56	-17.28	1	144	1	90	90	0	0	0	0	0	0	0	0	0	0	120	0.0000	0.0000	0.0000	0.0000;
	3120	29.7	0	0	0	1	47.52	1	29.7	29.7	0	0	0	0	0	0	0	0	0	0	39.6	0.0000	0.0000	0.0000	0.0000;
	3122	147.75	-8.91	41.96	-28.37	1	236.4	1	147.75	147.75	0	0	0	0	0	0	0	0	0	0	197	0.0000	0.0000	0.0000	0.0000;
	3127	101.25	-19.44	28.76	-19.44	1	162	1	101.25	101.25	0	0	0	0	0	0	0	0	0	0	135	0.0000	0.0000	0.0000	0.0000;
	3129	94.88	-18.22	26.94	-18.22	1	151.8	1	94.88	94.88	0	0	0	0	0	0	0	0	0	0	126.5	0.0000	0.0000	0.0000	0.0000;
	3131	85.5	24.28	24.28	-16.42	1.02	136.8	1	85.5	85.5	0	0	0	0	0	0	0	0	0	0	114	0.0000	0.0000	0.0000	0.0000;
	3133	0	0	26.11	-5.69	1.04	61.56	0	51.3	15.39	0	0	0	0	0	0	0	0	0	0	51.3	0.0000	0.0000	0.0000	0.0000;
	3133	0	0	26.11	-5.69	1.04	61.56	0	51.3	15.39	0	0	0	0	0	0	0	0	0	0	51.3	0.0000	0.0000	0.0000	0.0000;
	3133	0	0	26.11	-5.69	1.04	61.56	0	51.3	15.39	0	0	0	0	0	0	0	0	0	0	51.3	0.0000	0.0000	0.0000	0.0000;
	3137	75.9	21.56	21.56	-14.57	1.03	121.44	1	75.9	75.9	0	0	0	0	0	0	0	0	0	0	101.2	0.0000	0.0000	0.0000	0.0000;
	3141	68.62	-13.18	19.49	-13.18	1	109.8	1	68.62	68.62	0	0	0	0	0	0	0	0	0	0	91.5	0.0000	0.0000	0.0000	0.0000;
	4010	151.2	20.85	42.94	-29.03	1.03	241.92	1	151.2	151.2	0	0	0	0	0	0	0	0	0	0	201.6	0.0000	0.0000	0.0000	0.0000;
	4026	408.86	57.46	191.06	-50.02	1.03	492	1	410	123	0	0	0	0	0	0	0	0	0	0	410	0.0000	0.0000	0.0000	0.0000;
	4030	460.56	-23.08	290.04	-75.93	1.01	746.88	1	622.4	186.72	0	0	0	0	0	0	0	0	0	0	622.4	0.0000	0.0000	0.0000	0.0000;
	4045	93.4	8.96	35.86	-1.54	1.02	37.8	1	93.4	93.4	0	0	0	0	0	0	0	0	0	0	31.5	0.0000	0.0000	0.0000	0.0000;
	4046	28.5	2.93	10.94	-0.47	1.02	11.52	1	28.5	28.5	0	0	0	0	0	0	0	0	0	0	9.6	0.0000	0.0000	0.0000	0.0000;
	4047	27.48	6.02	75.1	-3.23	1.02	79.2	1	27.48	27.48	0	0	0	0	0	0	0	0	0	0	66	0.0000	0.0000	0.0000	0.0000;
	4050	150	-14.05	42.6	-28.8	1	240	1	150	150	0	0	0	0	0	0	0	0	0	0	200	0.0000	0.0000	0.0000	0.0000;
	4052	44.08	22.5	22.5	-4.91	1.04	53.04	1	44.2	13.26	0	0	0	0	0	0	0	0	0	0	44.2	0.0000	0.0000	0.0000	0.0000;
	4058	99.6	18.55	73.3	-15.98	1.03	172.8	1	144	43.2	0	0	0	0	0	0	0	0	0	0	144	0.0000	0.0000	0.0000	0.0000;
	4059	84.08	19.72	73.3	-15.98	1.03	172.8	1	144	43.2	0	0	0	0	0	0	0	0	0	0	144	0.0000	0.0000	0.0000	0.0000;
	4060	124.4	15.6	73.3	-15.98	1.03	172.8	1	144	43.2	0	0	0	0	0	0	0	0	0	0	144	0.0000	0.0000	0.0000	0.0000;
	4061	148.87	20.61	87.72	-19.13	1.03	206.8	1	172.33	51.7	0	0	0	0	0	0	0	0	0	0	172.33	0.0000	0.0000	0.0000	0.0000;
	4062	171.85	17.91	87.72	-19.13	1.03	206.8	1	172.33	51.7	0	0	0	0	0	0	0	0	0	0	172.33	0.0000	0.0000	0.0000	0.0000;
	4063	124.75	20.79	87.72	-19.13	1.03	206.8	1	172.33	51.7	0	0	0	0	0	0	0	0	0	0	172.33	0.0000	0.0000	0.0000	0.0000;
	4065	46.87	14.18	23.92	-5.22	1.02	56.4	1	47	14.1	0	0	0	0	0	0	0	0	0	0	47	0.0000	0.0000	0.0000	0.0000;
	4075	0	0	89.75	-19.57	1.03	211.6	0	176.33	52.9	0	0	0	0	0	0	0	0	0	0	176.33	0.0000	0.0000	0.0000	0.0000;
	4076	175.84	36.05	89.75	-19.57	1.03	211.6	1	176.33	52.9	0	0	0	0	0	0	0	0	0	0	176.33	0.0000	0.0000	0.0000	0.0000;
	4077	97.06	28.93	89.75	-19.57	1.03	211.6	1	176.33	52.9	0	0	0	0	0	0	0	0	0	0	176.33	0.0000	0.0000	0.0000	0.0000;
	4082	242.72	32.28	123.89	-27.02	1.04	292.08	1	243.4	73.02	0	0	0	0	0	0	0	0	0	0	243.4	0.0000	0.0000	0.0000	0.0000;
	4083	242.72	33.27	123.89	-27.02	1.04	292.08	1	243.4	73.02	0	0	0	0	0	0	0	0	0	0	243.4	0.0000	0.0000	0.0000	0.0000;
	4084	242.72	51.43	123.89	-27.02	1.04	292.08	1	243.4	73.02	0	0	0	0	0	0	0	0	0	0	243.4	0.0000	0.0000	0.0000	0.0000;
	4085	168.05	54.88	179.17	-39.07	1.04	422.4	1	352	105.6	0	0	0	0	0	0	0	0	0	0	352	0.0000	0.0000	0.0000	0.0000;
	4090	0	0	0.65	-0.17	1.01	1.68	0	1.4	0.42	0	0	0	0	0	0	0	0	0	0	1.4	0.0000	0.0000	0.0000	0.0000;
	4091	23.43	3.95	10.95	-2.87	1.01	28.2	1	23.5	7.05	0	0	0	0	0	0	0	0	0	0	23.5	0.0000	0.0000	0.0000	0.0000;
	4092	0	0	3.54	-0.93	1.01	9.12	0	7.6	2.28	0	0	0	0	0	0	0	0	0	0	7.6	0.0000	0.0000	0.0000	0.0000;
	4093	27.92	2.53	13.05	-3.42	1.01	33.6	1	28	8.4	0	0	0	0	0	0	0	0	0	0	28	0.0000	0.0000	0.0000	0.0000;
	4094	27.92	8.12	13.05	-3.42	1.01	33.6	1	28	8.4	0	0	0	0	0	0	0	0	0	0	28	0.0000	0.0000	0.0000	0.0000;
	4095	27.92	3.75	13.05	-3.42	1.01	33.6	1	28	8.4	0	0	0	0	0	0	0	0	0	0	28	0.0000	0.0000	0.0000	0.0000;
	4096	0	0	13.05	-3.42	1.01	33.6	0	28	8.4	0	0	0	0	0	0	0	0	0	0	28	0.0000	0.0000	0.0000	0.0000;
	4097	27.92	3.29	13.05	-3.42	1.01	33.6	1	28	8.4	0	0	0	0	0	0	0	0	0	0	28	0.0000	0.0000	0.0000	0.0000;
	4098	0	0	13.05	-3.42	1.01	33.6	0	28	8.4	0	0	0	0	0	0	0	0	0	0	28	0.0000	0.0000	0.0000	0.0000;
	4105	135	26.12	38.34	-25.92	1.01	216	1	135	135	0	0	0	0	0	0	0	0	0	0	180	0.0000	0.0000	0.0000	0.0000;
	4115	131.43	37.25	67.09	-14.63	1.04	158.16	1	131.8	39.54	0	0	0	0	0	0	0	0	0	0	131.8	0.0000	0.0000	0.0000	0.0000;
	4116	123.76	34.12	67.09	-14.63	1.04	158.16	1	131.8	39.54	0	0	0	0	0	0	0	0	0	0	131.8	0.0000	0.0000	0.0000	0.0000;
	4133	0	0	17.1	-3.73	1	40.32	0	33.6	10.08	0	0	0	0	0	0	0	0	0	0	33.6	0.0000	0.0000	0.0000	0.0000;
	4134	10.21	-3.73	17.1	-3.73	1	40.32	1	33.6	10.08	0	0	0	0	0	0	0	0	0	0	33.6	0.0000	0.0000	0.0000	0.0000;
	4135	10.21	-3.73	17.1	-3.73	1	40.32	1	33.6	10.08	0	0	0	0	0	0	0	0	0	0	33.6	0.0000	0.0000	0.0000	0.0000;
	4136	10.21	-3.73	17.1	-3.73	1	40.32	1	33.6	10.08	0	0	0	0	0	0	0	0	0	0	33.6	0.0000	0.0000	0.0000	0.0000;
	4137	0	0	34.2	-7.46	1	80.64	0	67.2	20.16	0	0	0	0	0	0	0	0	0	0	67.2	0.0000	0.0000	0.0000	0.0000;
	4138	0	0	33.59	-7.33	1	79.2	0	66	19.8	0	0	0	0	0	0	0	0	0	0	66	0.0000	0.0000	0.0000	0.0000;
	4142	141	40.04	40.04	-27.07	1.04	225.6	1	141	141	0	0	0	0	0	0	0	0	0	0	188	0.0000	0.0000	0.0000	0.0000;
	4153	212.4	60.32	60.32	-40.78	1.04	339.84	1	212.4	212.4	0	0	0	0	0	0	0	0	0	0	283.2	0.0000	0.0000	0.0000	0.0000;
	4160	197.22	68.62	100.66	-21.95	1.03	237.32	1	197.77	59.33	0	0	0	0	0	0	0	0	0	0	197.77	0.0000	0.0000	0.0000	0.0000;
	4161	87.79	28.72	100.66	-21.95	1.03	237.32	1	197.77	59.33	0	0	0	0	0	0	0	0	0	0	197.77	0.0000	0.0000	0.0000	0.0000;
	4162	112.46	27.68	100.66	-21.95	1.03	237.32	1	197.77	59.33	0	0	0	0	0	0	0	0	0	0	197.77	0.0000	0.0000	0.0000	0.0000;
	4163	0	0	4.58	-1	1.03	10.8	0	9	2.7	0	0	0	0	0	0	0	0	0	0	9	0.0000	0.0000	0.0000	0.0000;
	4166	150.75	-28.94	42.81	-28.94	1	241.2	1	150.75	150.75	0	0	0	0	0	0	0	0	0	0	201	0.0000	0.0000	0.0000	0.0000;
	4177	112.5	8.16	31.95	-21.6	1.04	180	1	112.5	112.5	0	0	0	0	0	0	0	0	0	0	150	0.0000	0.0000	0.0000	0.0000;
	4181	150.07	42.62	42.62	-28.81	1.04	240.12	1	150.07	150.07	0	0	0	0	0	0	0	0	0	0	200.1	0.0000	0.0000	0.0000	0.0000;
	4183	152.25	43.24	43.24	-29.23	1.03	243.6	1	152.25	152.25	0	0	0	0	0	0	0	0	0	0	203	0.0000	0.0000	0.0000	0.0000;
	4192	74.79	21.27	38.17	-8.33	1.02	90	1	75	22.5	0	0	0	0	0	0	0	0	0	0	75	0.0000	0.0000	0.0000	0.0000;
	4192	183.26	21.27	93.54	-20.4	1.02	220.52	1	183.77	55.13	0	0	0	0	0	0	0	0	0	0	183.77	0.0000	0.0000	0.0000	0.0000;
	4192	0	0	12.22	-2.66	1.02	28.8	0	24	7.2	0	0	0	0	0	0	0	0	0	0	24	0.0000	0.0000	0.0000	0.0000;
	4192	60.83	21.27	31.05	-6.77	1.02	73.2	1	61	18.3	0	0	0	0	0	0	0	0	0	0	61	0.0000	0.0000	0.0000	0.0000;
	4192	10.37	5.29	5.29	-1.15	1.02	12.48	1	10.4	3.12	0	0	0	0	0	0	0	0	0	0	10.4	0.0000	0.0000	0.0000	0.0000;
	4192	136.48	21.27	135.9	-29.64	1.02	320.4	1	267	80.1	0	0	0	0	0	0	0	0	0	0	267	0.0000	0.0000	0.0000	0.0000;
	4192	155.9	21.27	135.9	-29.64	1.02	320.4	1	267	80.1	0	0	0	0	0	0	0	0	0	0	267	0.0000	0.0000	0.0000	0.0000;
	4192	155.9	21.27	135.9	-29.64	1.02	320.4	1	267	80.1	0	0	0	0	0	0	0	0	0	0	267	0.0000	0.0000	0.0000	0.0000;
	4192	183.26	21.27	93.54	-20.4	1.02	220.52	1	183.77	55.13	0	0	0	0	0	0	0	0	0	0	183.77	0.0000	0.0000	0.0000	0.0000;
	4192	183.26	21.27	93.54	-20.4	1.02	220.52	1	183.77	55.13	0	0	0	0	0	0	0	0	0	0	183.77	0.0000	0.0000	0.0000	0.0000;
	4194	151.2	42.94	42.94	-29.03	1.02	241.92	1	151.2	151.2	0	0	0	0	0	0	0	0	0	0	201.6	0.0000	0.0000	0.0000	0.0000;
	4195	69	-13.25	19.6	-13.25	1	110.4	1	69	69	0	0	0	0	0	0	0	0	0	0	92	0.0000	0.0000	0.0000	0.0000;
	5020	90	-11.79	25.56	-17.28	1	144	1	90	90	0	0	0	0	0	0	0	0	0	0	120	0.0000	0.0000	0.0000	0.0000;
	5023	0	0	2.44	-0.53	1.04	5.76	0	4.8	1.44	0	0	0	0	0	0	0	0	0	0	4.8	0.0000	0.0000	0.0000	0.0000;
	5035	0	0	2.14	-0.47	1.02	5.04	0	4.2	1.26	0	0	0	0	0	0	0	0	0	0	4.2	0.0000	0.0000	0.0000	0.0000;
	5036	0	0	3.26	-0.71	1.02	7.68	0	6.4	1.92	0	0	0	0	0	0	0	0	0	0	6.4	0.0000	0.0000	0.0000	0.0000;
	5037	93.74	76.29	157.01	-34.24	1.02	370.16	1	308.47	92.54	0	0	0	0	0	0	0	0	0	0	308.47	0.0000	0.0000	0.0000	0.0000;
	5038	93.74	74.11	157.01	-34.24	1.02	370.16	1	308.47	92.54	0	0	0	0	0	0	0	0	0	0	308.47	0.0000	0.0000	0.0000	0.0000;
	5039	93.74	157.01	157.01	-34.24	1.02	370.16	1	308.47	92.54	0	0	0	0	0	0	0	0	0	0	308.47	0.0000	0.0000	0.0000	0.0000;
	5040	93.74	55.86	157.01	-34.24	1.02	370.16	1	308.47	92.54	0	0	0	0	0	0	0	0	0	0	308.47	0.0000	0.0000	0.0000	0.0000;
	5041	93.74	80.68	157.01	-34.24	1.02	370.16	1	308.47	92.54	0	0	0	0	0	0	0	0	0	0	308.47	0.0000	0.0000	0.0000	0.0000;
	5042	93.74	69.22	157.01	-34.24	1.02	370.16	1	308.47	92.54	0	0	0	0	0	0	0	0	0	0	308.47	0.0000	0.0000	0.0000	0.0000;
	5051	84.46	43.11	43.11	-9.4	1.02	101.64	1	84.7	25.41	0	0	0	0	0	0	0	0	0	0	84.7	0.0000	0.0000	0.0000	0.0000;
	5057	0	0	161.53	-35.23	1	380.82	0	317.35	95.2	0	0	0	0	0	0	0	0	0	0	317.35	0.0000	0.0000	0.0000	0.0000;
	5058	251.16	-12.74	161.53	-35.23	1	380.82	1	317.35	95.2	0	0	0	0	0	0	0	0	0	0	317.35	0.0000	0.0000	0.0000	0.0000;
	5065	10.57	5.4	5.4	-1.18	1.03	12.72	1	10.6	3.18	0	0	0	0	0	0	0	0	0	0	10.6	0.0000	0.0000	0.0000	0.0000;
	5066	0	0	0.92	-0.2	1.03	2.16	0	1.8	0.54	0	0	0	0	0	0	0	0	0	0	1.8	0.0000	0.0000	0.0000	0.0000;
	5067	437.05	194.05	223.08	-48.65	1.03	525.92	1	438.27	131.48	0	0	0	0	0	0	0	0	0	0	438.27	0.0000	0.0000	0.0000	0.0000;
	5068	437.05	183.38	223.08	-48.65	1.03	525.92	1	438.27	131.48	0	0	0	0	0	0	0	0	0	0	438.27	0.0000	0.0000	0.0000	0.0000;
	5069	437.05	172.2	223.08	-48.65	1.03	525.92	1	438.27	131.48	0	0	0	0	0	0	0	0	0	0	438.27	0.0000	0.0000	0.0000	0.0000;
	5089	0	0	47.57	-2.05	1.01	50.16	0	123.9	0	0	0	0	0	0	0	0	0	0	0	41.8	0.0000	0.0000	0.0000	0.0000;
...
];

%% branch data
%	fbus	tbus	r	x	b	rateA	rateB	rateC	ratio	angle	status	angmin	angmax	Pf	Qf	Pt	Qt	mu_Sf	mu_St	mu_angmin	mu_angmax
mpc.branch = [
	1001	1064	0.00524	0.0358	0.00609	221	0	0	0	0	1	0	0	67.4700	10.9000	-67.2100	-9.7300	0.0000	0.0000	0.0000	0.0000;
	1001	1064	0.00524	0.0358	0.00609	221	0	0	0	0	1	0	0	67.4700	10.9000	-67.2100	-9.7300	0.0000	0.0000	0.0000	0.0000;
	1001	1071	0.00435	0.02808	0.00536	221	0	0	0	0	1	0	0	-77.8600	-13.8400	78.1400	15.1500	0.0000	0.0000	0.0000	0.0000;
	1001	1071	0.00435	0.02808	0.00536	221	0	0	0	0	1	0	0	-77.8600	-13.8400	78.1400	15.1500	0.0000	0.0000	0.0000	0.0000;
	1002	1007	0.07776	0.46693	0.06336	98	0	0	0	0	1	0	0	1.1700	-5.0100	-1.1600	-1.5100	0.0000	0.0000	0.0000	0.0000;
	1010	1002	0.05552	0.1357	0.01777	98	0	0	0	0	1	0	0	16.7300	-2.1200	-16.5800	0.6500	0.0000	0.0000	0.0000	0.0000;
	1004	1003	0.0045	0.11582	0	250	0	0	1	0	1	0	0	-28.2700	4.8900	28.3000	-3.9600	0.0000	0.0000	0.0000	0.0000;
	1022	1003	0.00485	0.02012	0.00341	221	0	0	0	0	1	0	0	77.6400	-2.3900	-77.3600	3.2200	0.0000	0.0000	0.0000	0.0000;
	1055	1003	0.01574	0.03782	0.00513	98	0	0	0	0	1	0	0	-48.6800	-0.3600	49.0500	0.7400	0.0000	0.0000	0.0000	0.0000;
	1004	3133	0.0042	0.03	0.055	523	0	0	0	0	1	0	0	186.5200	-35.2700	-185.0500	40.0800	0.0000	0.0000	0.0000	0.0000;
	1006	1005	0.00602	0.14707	0	42	0	0	1	0	1	0	0	25.7300	-4.3500	-25.6900	5.3600	0.0000	0.0000	0.0000	0.0000;
	1025	1005	0.01842	0.0821	0.01204	149	0	0	0	0	1	0	0	42.4100	3.8100	-42.0900	-3.6000	0.0000	0.0000	0.0000	0.0000;
	1005	1061	0.00599	0.02484	0.00422	221	0	0	0	0	1	0	0	76.0400	-21.7100	-75.6700	22.8200	0.0000	0.0000	0.0000	0.0000;
	1067	1005	0.01711	0.04181	0.00548	98	0	0	0	0	1	0	0	8.3500	-20.3000	-8.2700	19.9500	0.0000	0.0000	0.0000	0.0000;
	1007	1015	0.06224	0.37375	0.05072	98	0	0	0	0	1	0	0	-1.2800	-2.9200	1.2800	-2.3600	0.0000	0.0000	0.0000	0.0000;
	1031	1007	0.04803	0.27434	0.04123	98	0	0	0	0	1	0	0	4.5800	-5.7600	-4.5700	1.6000	0.0000	0.0000	0.0000	0.0000;
	1009	1008	0.00455	0.09471	0	120	0	0	1	0	1	0	0	61.8700	-11.8800	-61.6900	15.5700	0.0000	0.0000	0.0000	0.0000;
	1008	1032	0.04501	0.11002	0.01441	98	0	0	0	0	1	0	0	57.6200	-5.1600	-56.1800	7.2300	0.0000	0.0000	0.0000	0.0000;
	1008	1069	0.0083	0.03628	0.00553	149	0	0	0	0	1	0	0	4.0700	-10.4100	-4.0600	9.8800	0.0000	0.0000	0.0000	0.0000;
	1011	1010	0.00721	0.3246	0	46	0	0	1	0	1	0	0	9.9700	0.0000	-9.9700	0.3100	0.0000	0.0000	0.0000	0.0000;
	1010	1015	0.04703	0.28243	0.03833	98	0	0	0	0	1	0	0	8.8200	-4.0100	-8.7900	0.2300	0.0000	0.0000	0.0000	0.0000;
	1010	1030	0.0616	0.3699	0.0502	98	0	0	0	0	1	0	0	-15.5900	2.6100	15.7500	-6.8400	0.0000	0.0000	0.0000	0.0000;
	1012	1087	0.04934	0.20469	0.03473	149	0	0	0	0	1	0	0	-75.9800	16.1500	78.9500	-7.3900	0.0000	0.0000	0.0000	0.0000;
	3051	1012	0.0571	0.24977	0.03804	149	0	0	0	0	1	0	0	-69.9700	16.7900	73.0000	-7.3800	0.0000	0.0000	0.0000	0.0000;
	1013	1031	0.04509	0.27078	0.03675	98	0	0	0	0	1	0	0	13.9200	-6.3100	-13.8300	3.1400	0.0000	0.0000	0.0000	0.0000;
	1047	1013	0.00947	0.06117	0.01167	221	0	0	0	0	1	0	0	58.8200	-9.3000	-58.4900	10.2600	0.0000	0.0000	0.0000	0.0000;
	1086	1013	0.079	0.19311	0.02529	98	0	0	0	0	1	0	0	-15.0600	10.3300	15.3400	-12.2300	0.0000	0.0000	0.0000	0.0000;
	1014	1047	0.03566	0.14794	0.0251	149	0	0	0	0	1	0	0	17.4600	-0.4200	-17.3500	-1.6900	0.0000	0.0000	0.0000	0.0000;
	1014	1083	0.04105	0.18293	0.02682	149	0	0	0	0	1	0	0	-19.6800	-0.2100	19.8300	-1.8600	0.0000	0.0000	0.0000	0.0000;
	1016	1034	0.01828	0.10976	0.01489	98	0	0	0	0	1	0	0	-16.4600	14.0900	16.5400	-15.1000	0.0000	0.0000	0.0000	0.0000;
	1068	1016	0.02773	0.15837	0.0238	98	0	0	0	0	1	0	0	-13.4400	-17.7900	13.5700	16.1400	0.0000	0.0000	0.0000	0.0000;
	1018	1017	0.03227	0.07887	0.01033	98	0	0	0	0	1	0	0	26.5900	0.8000	-26.3500	-1.2300	0.0000	0.0000	0.0000	0.0000;
	1017	1029	0.03244	0.14188	0.02161	149	0	0	0	0	1	0	0	36.6200	-22.5200	-36.0100	23.0500	0.0000	0.0000	0.0000	0.0000;
	1037	1017	0.00752	0.03352	0.00491	221	0	0	0	0	1	0	0	-57.3800	-7.6600	57.6400	8.3700	0.0000	0.0000	0.0000	0.0000;
	1047	1017	0.036	0.156	0.024	150	0	0	0	0	1	0	0	89.0800	-0.3000	-86.2500	10.1900	0.0000	0.0000	0.0000	0.0000;
	1024	1018	0.01094	0.06572	0.00892	98	0	0	0	0	1	0	0	26.7300	0.4100	-26.6500	-0.8100	0.0000	0.0000	0.0000	0.0000;
	1019	1040	0.04978	0.20651	0.03504	149	0	0	0	0	1	0	0	-13.9400	4.5100	14.0600	-7.5100	0.0000	0.0000	0.0000	0.0000;
	1019	1045	0.01522	0.0372	0.00487	221	0	0	0	0	1	0	0	104.9100	17.9300	-103.1800	-14.1900	0.0000	0.0000	0.0000	0.0000;
	1019	1071	0.0044	0.028	0.0054	225	0	0	0	0	1	0	0	-43.9100	51.5100	44.1100	-50.7500	0.0000	0.0000	0.0000	0.0000;
	1071	1019	0.0044	0.028	0.0054	225	0	0	0	0	1	0	0	44.1100	-50.7500	-43.9100	51.5100	0.0000	0.0000	0.0000	0.0000;
	1019	1084	0.03	0.16	0.025	220	0	0	0	0	1	0	0	-64.9300	-0.1300	66.2000	4.3300	0.0000	0.0000	0.0000	0.0000;
	1021	1020	0.00327	0.07812	0	250	0	0	1	0	1	0	0	149.6300	-23.1500	-148.8800	41.0600	0.0000	0.0000	0.0000	0.0000;
	1025	1020	0.00828	0.03434	0.00583	149	0	0	0	0	1	0	0	50.3700	-22.9200	-50.1300	23.3200	0.0000	0.0000	0.0000	0.0000;
	1084	1020	0.01056	0.06337	0.0086	221	0	0	0	0	1	0	0	-33.8500	9.6400	33.9800	-9.7800	0.0000	0.0000	0.0000	0.0000;
	1020	3059	0.0189	0.06	0.006	300	0	0	0	0	1	0	0	63.2800	1.5700	-62.5500	0.1200	0.0000	0.0000	0.0000	0.0000;
	1020	3130	0.00996	0.06938	0.01134	221	0	0	0	0	1	0	0	101.7500	13.7700	-100.7400	-7.8900	0.0000	0.0000	0.0000	0.0000;
	1023	1022	0.00535	0.11733	0	250	0	0	1	0	1	0	0	135.0000	2.2600	-134.0400	18.7100	0.0000	0.0000	0.0000	0.0000;
	1022	1028	0.01433	0.09253	0.01765	221	0	0	0	0	1	0	0	28.2000	-8.1600	-28.0800	7.1100	0.0000	0.0000	0.0000	0.0000;
	1022	1028	0.01433	0.09253	0.01765	221	0	0	0	0	1	0	0	28.2000	-8.1600	-28.0800	7.1100	0.0000	0.0000	0.0000	0.0000;
	1024	1090	0.01414	0.06303	0.00924	149	0	0	0	0	1	0	0	-89.7700	-18.2700	90.9700	22.6700	0.0000	0.0000	0.0000	0.0000;
	1026	1025	0.0042	0.18046	0	200	0	0	1	0	1	0	0	93.1500	-3.4200	-92.7900	19.1000	0.0000	0.0000	0.0000	0.0000;
	1027	1045	0.02505	0.10957	0.01669	221	0	0	0	0	1	0	0	-15.0000	28.4300	15.2600	-28.8900	0.0000	0.0000	0.0000	0.0000;
	1056	1027	0.03121	0.0763	0.00999	250	0	0	0	0	1	0	0	88.6200	-13.8300	-86.2100	18.6900	0.0000	0.0000	0.0000	0.0000;
	1028	3109	0.00428	0.01875	0.00286	250	0	0	0	0	1	0	0	46.1500	-17.0600	-46.0500	17.2000	0.0000	0.0000	0.0000	0.0000;
	1029	1056	0.02054	0.11733	0.01763	221	0	0	0	0	1	0	0	-47.1700	-6.4200	47.6400	7.2500	0.0000	0.0000	0.0000	0.0000;
	1030	1038	0.07404	0.42285	0.06354	98	0	0	0	0	1	0	0	-23.6800	1.0800	24.1000	-5.2300	0.0000	0.0000	0.0000	0.0000;
	1083	1030	0.06537	0.37334	0.0561	98	0	0	0	0	1	0	0	16.8700	-3.5300	-16.6900	-1.2300	0.0000	0.0000	0.0000	0.0000;
	1033	1032	0.00283	0.06758	0	170	0	0	1	0	1	0	0	-119.7800	34.1200	120.2100	-23.9800	0.0000	0.0000	0.0000	0.0000;
	1032	1036	0.01956	0.11746	0.01594	98	0	0	0	0	1	0	0	3.9800	1.1300	-3.9700	-2.7000	0.0000	0.0000	0.0000	0.0000;
	1038	1032	0.045	0.11	0.015	155	0	0	0	0	1	0	0	70.2100	-11.7700	-68.0100	15.6200	0.0000	0.0000	0.0000	0.0000;
	1033	1081	0.003	0.031	0.059	548	0	0	0	0	1	0	0	102.8300	-22.0100	-102.5100	19.1700	0.0000	0.0000	0.0000	0.0000;
	1033	3050	0.0139	0.136	0.262	647	0	0	0	0	1	0	0	225.4600	-0.4500	-218.6000	40.5400	0.0000	0.0000	0.0000	0.0000;
	1035	1034	0.00438	0.08496	0	130	0	0	1	0	1	0	0	67.5000	-6.8700	-67.3000	10.7800	0.0000	0.0000	0.0000	0.0000;
	1067	1034	0.00795	0.04771	0.00647	98	0	0	0	0	1	0	0	-50.5500	-3.7400	50.7500	4.3200	0.0000	0.0000	0.0000	0.0000;
	1088	1036	0.02065	0.11793	0.01772	98	0	0	0	0	1	0	0	9.6400	-0.5100	-9.6200	-1.1500	0.0000	0.0000	0.0000	0.0000;
	1037	1071	0.00669	0.04319	0.00824	300	0	0	0	0	1	0	0	-44.8600	-21.3100	45.0300	21.6300	0.0000	0.0000	0.0000	0.0000;
	1039	1038	0.00201	0.08591	0	200	0	0	1	0	1	0	0	110.6300	-16.6500	-110.3800	27.4100	0.0000	0.0000	0.0000	0.0000;
	1082	1038	0.01115	0.04969	0.00729	149	0	0	0	0	1	0	0	61.6100	-7.4100	-61.2000	8.4900	0.0000	0.0000	0.0000	0.0000;
	1083	1038	0.01	0.05	0.007	221	0	0	0	0	1	0	0	-76.6500	21.2300	77.2600	-18.9000	0.0000	0.0000	0.0000	0.0000;
	1040	1090	0.02991	0.13329	0.01955	149	0	0	0	0	1	0	0	-58.4200	-5.0600	59.4500	7.7000	0.0000	0.0000	0.0000	0.0000;
	1042	1041	0.00419	0.11123	0	145	0	0	1	0	1	0	0	0.0000	0.0000	0.0000	0.0000	0.0000	0.0000	0.0000	0.0000;
	1043	1041	0.003	0.12844	0	95	0	0	1	0	1	0	0	44.1000	-1.1600	-44.0400	3.6600	0.0000	0.0000	0.0000	0.0000;
	1065	1041	0.00386	0.02203	0.00331	98	0	0	0	0	1	0	0	15.4600	8.4800	-15.4500	-8.7400	0.0000	0.0000	0.0000	0.0000;
	1041	1067	0.00393	0.01722	0.00262	149	0	0	0	0	1	0	0	59.4900	5.0800	-59.3500	-4.7300	0.0000	0.0000	0.0000	0.0000;
	1044	3019	0.03857	0.17192	0.02521	149	0	0	0	0	1	0	0	46.5100	-17.3600	-45.5900	18.8800	0.0000	0.0000	0.0000	0.0000;
	3130	1044	0.02731	0.19029	0.03111	221	0	0	0	0	1	0	0	62.2600	-8.9000	-61.2000	13.2000	0.0000	0.0000	0.0000	0.0000;
	1045	1064	0.00545	0.03794	0.0062	221	0	0	0	0	1	0	0	-10.6400	15.1500	10.6600	-15.6000	0.0000	0.0000	0.0000	0.0000;
	1087	1046	0.03262	0.14269	0.02173	149	0	0	0	0	1	0	0	77.9900	-12.7800	-76.0400	19.0600	0.0000	0.0000	0.0000	0.0000;
	1046	3009	0.05654	0.23454	0.0398	149	0	0	0	0	1	0	0	64.9600	-9.7700	-62.6200	15.3700	0.0000	0.0000	0.0000	0.0000;
	1048	1047	0.00335	0.06576	0	390	0	0	1	0	1	0	0	0.0000	0.0000	0.0000	0.0000	0.0000	0.0000	0.0000	0.0000;
	1049	1047	0.00276	0.11783	0	390	0	0	1	0	1	0	0	0.0000	0.0000	0.0000	0.0000	0.0000	0.0000	0.0000	0.0000;
	1050	1047	0.00313	0.09941	0	124	0	0	1	0	1	0	0	89.1500	-4.1400	-88.9000	12.0600	0.0000	0.0000	0.0000	0.0000;
	1051	1047	0.0056	0.1283	0	117	0	0	1	0	1	0	0	89.1500	-2.8800	-88.7000	13.0900	0.0000	0.0000	0.0000	0.0000;
	1052	1047	0.00368	0.0826	0	110	0	0	1	0	1	0	0	89.1500	-7.0400	-88.8600	13.6400	0.0000	0.0000	0.0000	0.0000;
	1053	1047	0.0023	0.08808	0	250	0	0	1	0	1	0	0	-80.2200	18.9500	80.3700	-13.1700	0.0000	0.0000	0.0000	0.0000;
	1047	1085	0.00947	0.06117	0.01167	221	0	0	0	0	1	0	0	55.5300	-14.3200	-55.2300	15.1200	0.0000	0.0000	0.0000	0.0000;
	1053	1081	0.003	0.03	0.06	548	0	0	0	0	1	0	0	80.2200	-18.9500	-80.0300	14.6600	0.0000	0.0000	0.0000	0.0000;
	1054	1056	0.02202	0.09633	0.01467	149	0	0	0	0	1	0	0	-12.0200	-14.9600	12.0900	13.7800	0.0000	0.0000	0.0000	0.0000;
	1089	1054	0.08737	0.21357	0.02796	98	0	0	0	0	1	0	0	3.1100	-13.1300	-2.9700	10.7100	0.0000	0.0000	0.0000	0.0000;
	1055	1089	0.04982	0.12179	0.01595	98	0	0	0	0	1	0	0	44.7000	-0.7700	-43.7100	1.6300	0.0000	0.0000	0.0000	0.0000;
	1057	1056	0.00315	0.1312	0	160	0	0	1	0	1	0	0	0.0000	0.0000	0.0000	0.0000	0.0000	0.0000	0.0000	0.0000;
	1056	1061	0.02267	0.12946	0.01945	150	0	0	0	0	1	0	0	-59.4800	22.5500	60.3700	-19.4500	0.0000	0.0000	0.0000	0.0000;
	1056	1065	0.02269	0.12962	0.01948	250	0	0	0	0	1	0	0	-88.8700	32.6300	90.8400	-23.3800	0.0000	0.0000	0.0000	0.0000;
	1059	1058	0.02655	0.46187	0	33	0	0	1	0	1	0	0	0.0000	0.0000	0.0000	0.0000	0.0000	0.0000	0.0000	0.0000;
	1060	1058	0.00894	0.38854	0	27	0	0	1	0	1	0	0	0.0000	0.0000	0.0000	0.0000	0.0000	0.0000	0.0000	0.0000;
	1069	1058	0.0074	0.05155	0.00843	221	0	0	0	0	1	0	0	87.1700	-4.7300	-86.6300	7.6000	0.0000	0.0000	0.0000	0.0000;
	1069	1058	0.0074	0.05155	0.00843	221	0	0	0	0	1	0	0	87.1700	-4.7300	-86.6300	7.6000	0.0000	0.0000	0.0000	0.0000;
	1058	1087	0.01573	0.10956	0.01791	221	0	0	0	0	1	0	0	79.9100	-9.5100	-78.9300	14.4600	0.0000	0.0000	0.0000	0.0000;
	1058	1087	0.01573	0.10956	0.01791	221	0	0	0	0	1	0	0	79.9100	-9.5100	-78.9300	14.4600	0.0000	0.0000	0.0000	0.0000;
	1062	1061	0.0163	0.31787	0	29	0	0	1	0	1	0	0	0.0000	0.0000	0.0000	0.0000	0.0000	0.0000	0.0000	0.0000;
	1063	1061	0.00567	0.10409	0	260	0	0	1	0	1	0	0	0.0000	0.0000	0.0000	0.0000	0.0000	0.0000	0.0000	0.0000;
	1061	3042	0.054	0.18	0.028	221	0	0	0	0	1	0	0	15.3000	-3.3600	-15.1700	0.9600	0.0000	0.0000	0.0000	0.0000;
	1066	1065	0.00508	0.12315	0	200	0	0	1	0	1	0	0	106.8800	-0.8300	-106.3000	14.9000	0.0000	0.0000	0.0000	0.0000;
	1088	1068	0.02962	0.16921	0.02543	98	0	0	0	0	1	0	0	46.6100	0.2100	-45.9600	0.9600	0.0000	0.0000	0.0000	0.0000;
	1070	1069	0.00297	0.07	0	220	0	0	1	0	1	0	0	120.3800	25.4900	-119.9600	-15.7000	0.0000	0.0000	0.0000	0.0000;
	1082	1069	0.02137	0.0952	0.01396	149	0	0	0	0	1	0	0	50.8900	-14.1900	-50.3200	15.2700	0.0000	0.0000	0.0000	0.0000;
	1072	1071	0.00529	0.08551	0	240	0	0	1	0	1	0	0	191.5900	30.8200	-189.6400	0.7500	0.0000	0.0000	0.0000	0.0000;
	1073	1071	0.00499	0.14254	0	240	0	0	1	0	1	0	0	191.5900	35.9700	-189.7300	17.1300	0.0000	0.0000	0.0000	0.0000;
	1074	1071	0.00575	0.12453	0	240	0	0	1	0	1	0	0	191.5900	32.6800	-189.4600	13.4300	0.0000	0.0000	0.0000	0.0000;
	1075	1071	0.00373	0.09967	0	240	0	0	1	0	1	0	0	191.5900	34.3800	-190.2100	2.6400	0.0000	0.0000	0.0000	0.0000;
	1076	1071	0.00141	0.04937	0	230	0	0	1	0	1	0	0	0.0000	0.0000	0.0000	0.0000	0.0000	0.0000	0.0000	0.0000;
	1077	1071	0.00641	0.12047	0	230	0	0	1	0	1	0	0	0.0000	0.0000	0.0000	0.0000	0.0000	0.0000	0.0000	0.0000;
	1078	1071	0.00533	0.19087	0	137	0	0	1	0	1	0	0	95.2300	18.1600	-94.7400	-0.5700	0.0000	0.0000	0.0000	0.0000;
	1079	1071	0.00013	0.046	0	2000	0	0	1	0	1	0	0	-641.0200	162.7800	641.5700	32.0500	0.0000	0.0000	0.0000	0.0000;
	1080	1071	0.01206	0.20208	0	136	0	0	1	0	1	0	0	95.2300	14.9000	-94.1300	3.5000	0.0000	0.0000	0.0000	0.0000;
	1081	1071	0.00167	0.0665	0	350	0	0	1	0	1	0	0	74.7700	50.4800	-74.6400	-45.2800	0.0000	0.0000	0.0000	0.0000;
	3048	1079	0.0013	0.015	1.02	2300	0	0	0	0	1	0	0	-366.4000	1.0200	368.1200	-86.6900	0.0000	0.0000	0.0000	0.0000;
	3048	1079	0.0013	0.015	1.02	2300	0	0	0	0	1	0	0	-366.4000	1.0200	368.1200	-86.6900	0.0000	0.0000	0.0000	0.0000;
	1081	3058	0.0091	0.089	0.171	548	0	0	0	0	1	0	0	107.7700	-25.1100	-106.7300	17.3200	0.0000	0.0000	0.0000	0.0000;
	1084	3130	0.02049	0.09131	0.01339	221	0	0	0	0	1	0	0	54.2800	10.6300	-53.6700	-9.3200	0.0000	0.0000	0.0000	0.0000;
	1085	1086	0.03392	0.14838	0.0226	149	0	0	0	0	1	0	0	24.8400	-10.6400	-24.6100	9.3600	0.0000	0.0000	0.0000	0.0000;
	1090	1085	0.02018	0.13786	0.02346	221	0	0	0	0	1	0	0	-9.0500	8.3300	9.0900	-10.5100	0.0000	0.0000	0.0000	0.0000;
	2029	1091	0.0389	0.17144	0.0798	187	0	0	0	0	1	0	0	-18.4000	-2.5300	18.5300	-5.2500	0.0000	0.0000	0.0000	0.0000;
	1091	2048	0.02193	0.09667	0.045	187	0	0	0	0	1	0	0	12.7600	-3.9800	-12.7300	-0.5900	0.0000	0.0000	0.0000	0.0000;
	2098	1091	0.00554	0.02443	0.01137	187	0	0	0	0	1	0	0	43.0100	-6.7000	-42.9100	5.9400	0.0000	0.0000	0.0000	0.0000;
	2022	2001	0.00839	0.03697	0.01721	187	0	0	0	0	1	0	0	66.1100	7.4400	-65.7400	-7.5700	0.0000	0.0000	0.0000	0.0000;
	2027	2001	0.00955	0.04062	0.02032	187	0	0	0	0	1	0	0	-17.3500	4.2300	17.3800	-6.1300	0.0000	0.0000	0.0000	0.0000;
	2003	2002	0.0003	0.01986	0	981	0	0	1	0	1	0	0	-202.8300	-1.6900	202.9500	9.7100	0.0000	0.0000	0.0000	0.0000;
	2004	2002	0.00022	0.01466	0	635	0	0	1	0	1	0	0	0.0000	0.0000	0.0000	0.0000	0.0000	0.0000	0.0000	0.0000;
	2005	2002	0.00033	0.01714	0	645	0	0	1	0	1	0	0	0.0000	0.0000	0.0000	0.0000	0.0000	0.0000	0.0000	0.0000;
	2006	2002	0.00036	0.02679	0	636	0	0	1	0	1	0	0	0.0000	0.0000	0.0000	0.0000	0.0000	0.0000	0.0000	0.0000;
	2021	2002	0.00097	0.01175	0.78032	2295	0	0	0	0	1	0	0	739.3300	-45.4500	-734.1700	27.9500	0.0000	0.0000	0.0000	0.0000;
	2002	2101	0.00031	0.0037	0.24573	2020	0	0	0	0	1	0	0	531.2200	-37.6500	-530.3600	22.7800	0.0000	0.0000	0.0000	0.0000;
	2038	2003	0.00353	0.02067	0.01032	251	0	0	0	0	1	0	0	-41.8000	-7.8600	41.8600	7.1800	0.0000	0.0000	0.0000	0.0000;
	2003	2047	0.0013	0.0099	0.0052	310	0	0	0	0	1	0	0	160.9700	-5.4900	-160.6300	7.4800	0.0000	0.0000	0.0000	0.0000;
	2007	2114	0.00888	0.05207	0.026	251	0	0	0	0	1	0	0	-76.2700	-3.8900	76.7800	4.2700	0.0000	0.0000	0.0000	0.0000;
	2007	2122	0.00861	0.03661	0.01831	187	0	0	0	0	1	0	0	66.7300	1.1900	-66.3500	-1.3900	0.0000	0.0000	0.0000	0.0000;
	2014	2008	0.02253	0.09931	0.04623	187	0	0	0	0	1	0	0	-10.2700	-1.6700	10.3000	-2.9900	0.0000	0.0000	0.0000	0.0000;
	2008	2052	0.01877	0.08271	0.0385	187	0	0	0	0	1	0	0	-18.3600	0.7100	18.4200	-4.4100	0.0000	0.0000	0.0000	0.0000;
	2009	2049	0.01224	0.07176	0.03583	251	0	0	0	0	1	0	0	-103.4500	22.9800	104.7800	-18.8900	0.0000	0.0000	0.0000	0.0000;
	2009	2082	0.00735	0.03126	0.01563	187	0	0	0	0	1	0	0	-8.5700	57.1700	8.8100	-57.7400	0.0000	0.0000	0.0000	0.0000;
	2109	2009	0.00725	0.03084	0.01542	250	0	0	0	0	1	0	0	-72.4600	-26.7800	72.8800	27.0000	0.0000	0.0000	0.0000	0.0000;
	2061	2010	0.02439	0.10748	0.05003	187	0	0	0	0	1	0	0	-16.1800	2.3300	16.2400	-7.2500	0.0000	0.0000	0.0000	0.0000;
	2010	2079	0.02061	0.09083	0.04228	187	0	0	0	0	1	0	0	-34.3200	3.5600	34.5600	-6.9100	0.0000	0.0000	0.0000	0.0000;
	2010	2091	0.02461	0.10467	0.05235	187	0	0	0	0	1	0	0	-38.7300	10.8900	39.1300	-14.6300	0.0000	0.0000	0.0000	0.0000;
	2012	2011	0.00044	0.03546	0	461	0	0	1	0	1	0	0	116.7600	-33.2700	-116.7000	38.2200	0.0000	0.0000	0.0000	0.0000;
	2013	2011	0.00043	0.02897	0	412	0	0	1	0	1	0	0	150.4500	-28.8900	-150.3500	35.2900	0.0000	0.0000	0.0000	0.0000;
	2127	2011	0.00108	0.01307	0.86827	2020	0	0	0	0	1	0	0	-266.3400	-11.5700	267.0600	-73.5100	0.0000	0.0000	0.0000	0.0000;
	2012	2041	0.01245	0.05297	0.02649	187	0	0	0	0	1	0	0	-72.0400	15.1900	72.6800	-15.2400	0.0000	0.0000	0.0000	0.0000;
	2012	2052	0.02008	0.08851	0.0412	187	0	0	0	0	1	0	0	43.6200	-0.0800	-43.2600	-2.6300	0.0000	0.0000	0.0000	0.0000;
	2093	2012	0.01029	0.04536	0.02111	187	0	0	0	0	1	0	0	-28.9100	6.0400	29.0000	-7.8900	0.0000	0.0000	0.0000	0.0000;
	2012	2123	0.00995	0.0423	0.02115	251	0	0	0	0	1	0	0	-117.3500	26.0400	118.7200	-22.4600	0.0000	0.0000	0.0000	0.0000;
	2014	2029	0.01859	0.07908	0.03955	187	0	0	0	0	1	0	0	-15.1500	-5.5300	15.2000	1.6200	0.0000	0.0000	0.0000	0.0000;
	2015	2037	0.00862	0.03799	0.01769	187	0	0	0	0	1	0	0	8.8500	-30.9300	-8.7600	29.4800	0.0000	0.0000	0.0000	0.0000;
	5014	2015	0.00961	0.04237	0.01972	187	0	0	0	0	1	0	0	13.6400	-31.1000	-13.5300	29.6000	0.0000	0.0000	0.0000	0.0000;
	2043	2016	0.00593	0.02614	0.01217	187	0	0	0	0	1	0	0	22.6500	-9.4200	-22.6200	8.3400	0.0000	0.0000	0.0000	0.0000;
	2069	2016	0.0084	0.03705	0.01725	187	0	0	0	0	1	0	0	46.8900	27.2600	-46.6500	-27.9600	0.0000	0.0000	0.0000	0.0000;
	2018	2017	0.00048	0.05045	0	271	0	0	1	0	1	0	0	28.8200	-3.9400	-28.8100	4.3500	0.0000	0.0000	0.0000	0.0000;
	2019	2017	0.0002	0.01182	0	454	0	0	1	0	1	0	0	0.0000	0.0000	0.0000	0.0000	0.0000	0.0000	0.0000	0.0000;
	2017	2096	0.00253	0.03068	2.03836	2020	0	0	0	0	1	0	0	-257.6200	-48.3200	259.2900	-145.2200	0.0000	0.0000	0.0000	0.0000;
	2017	2127	0.00089	0.01081	0.71846	2020	0	0	0	0	1	0	0	286.4300	-167.5400	-285.6000	100.8000	0.0000	0.0000	0.0000	0.0000;
	2018	2093	0.01163	0.05125	0.02386	187	0	0	0	0	1	0	0	-28.8200	3.9400	28.9100	-6.0400	0.0000	0.0000	0.0000	0.0000;
	2045	2020	0.00097	0.00548	0.00295	310	0	0	0	0	1	0	0	-166.7200	17.0000	167.0000	-15.7400	0.0000	0.0000	0.0000	0.0000;
	2055	2020	0.00102	0.00744	0.00422	409	0	0	0	0	1	0	0	215.4500	0.9100	-214.9700	2.1500	0.0000	0.0000	0.0000	0.0000;
	2022	2021	0.00034	0.01888	0	867	0	0	1	0	1	0	0	-183.4100	-14.2700	183.5300	20.5300	0.0000	0.0000	0.0000	0.0000;
	2023	2021	0.00054	0.03406	0	319	0	0	1	0	1	0	0	83.1000	18.1600	-83.0600	-15.7900	0.0000	0.0000	0.0000	0.0000;
	2024	2021	0.00036	0.02425	0	391	0	0	1	0	1	0	0	166.2000	26.5300	-166.1100	-19.9200	0.0000	0.0000	0.0000	0.0000;
	2113	2021	0.0001	0.00124	0.08207	2020	0	0	0	0	1	0	0	674.1300	-63.5400	-673.6900	60.6300	0.0000	0.0000	0.0000	0.0000;
	2022	2040	0.02207	0.09391	0.04697	187	0	0	0	0	1	0	0	12.6500	-2.5300	-12.6100	-2.1000	0.0000	0.0000	0.0000	0.0000;
	2064	2022	0.00558	0.03156	0.01697	251	0	0	0	0	1	0	0	-92.6200	-5.1100	93.0900	6.0900	0.0000	0.0000	0.0000	0.0000;
	2025	2055	0.0023	0.01016	0.00473	187	0	0	0	0	1	0	0	-33.3400	-24.5200	33.3800	24.2300	0.0000	0.0000	0.0000	0.0000;
	2067	2025	0.00317	0.014	0.00651	187	0	0	0	0	1	0	0	6.2900	-13.9100	-6.2800	13.3000	0.0000	0.0000	0.0000	0.0000;
...